# generated using pymatgen
data_SiC
_symmetry_space_group_name_H-M   'P 1'
_cell_length_a   3.07678129
_cell_length_b   3.07678129
_cell_length_c   47.84022062
_cell_angle_alpha   88.15725281
_cell_angle_beta   88.15725281
_cell_angle_gamma   59.99983980
_symmetry_Int_Tables_number   1
_chemical_formula_structural   SiC
_chemical_formula_sum   'Si19 C19'
_cell_volume   391.93745257
_cell_formula_units_Z   19
loop_
 _symmetry_equiv_pos_site_id
 _symmetry_equiv_pos_as_xyz
  1  'x, y, z'
loop_
 _atom_site_type_symbol
 _atom_site_label
 _atom_site_symmetry_multiplicity
 _atom_site_fract_x
 _atom_site_fract_y
 _atom_site_fract_z
 _atom_site_occupancy
  Si  Si0  1  0.00001098  0.00001098  -0.00000012  1
  Si  Si1  1  0.92981760  0.92981760  0.21053080  1
  Si  Si2  1  0.89472145  0.89472145  0.31580303  1
  Si  Si3  1  0.82457891  0.82457891  0.52625294  1
  Si  Si4  1  0.78946462  0.78946462  0.63154970  1
  Si  Si5  1  0.71930885  0.71930885  0.84203646  1
  Si  Si6  1  0.68419033  0.68419033  0.94740885  1
  Si  Si7  1  0.63159899  0.63159899  0.10525658  1
  Si  Si8  1  0.57892137  0.57892137  0.26318120  1
  Si  Si9  1  0.52633948  0.52633948  0.42104139  1
  Si  Si10  1  0.47367382  0.47367382  0.57889398  1
  Si  Si11  1  0.42107204  0.42107204  0.73682089  1
  Si  Si12  1  0.36841942  0.36841942  0.89472457  1
  Si  Si13  1  0.31581059  0.31581059  0.05257709  1
  Si  Si14  1  0.28069088  0.28069088  0.15794137  1
  Si  Si15  1  0.21057031  0.21057031  0.36836500  1
  Si  Si16  1  0.17543814  0.17543814  0.47369670  1
  Si  Si17  1  0.10528643  0.10528643  0.68414504  1
  Si  Si18  1  0.07017624  0.07017624  0.78946540  1
  C  C19  1  0.98683913  0.98683913  0.03948027  1
  C  C20  1  0.91666527  0.91666527  0.24998902  1
  C  C21  1  0.88158976  0.88158976  0.35525918  1
  C  C22  1  0.81143175  0.81143175  0.56569994  1
  C  C23  1  0.77633372  0.77633372  0.67103008  1
  C  C24  1  0.70617337  0.70617337  0.88150899  1
  C  C25  1  0.67104552  0.67104552  0.98688863  1
  C  C26  1  0.61837615  0.61837615  0.14486238  1
  C  C27  1  0.56574827  0.56574827  0.30274656  1
  C  C28  1  0.51312463  0.51312463  0.46062954  1
  C  C29  1  0.46050866  0.46050866  0.61847640  1
  C  C30  1  0.40786489  0.40786489  0.77640286  1
  C  C31  1  0.35522190  0.35522190  0.93432977  1
  C  C32  1  0.30265887  0.30265887  0.09204795  1
  C  C33  1  0.26752021  0.26752021  0.19742432  1
  C  C34  1  0.19738772  0.19738772  0.40783153  1
  C  C35  1  0.16228249  0.16228249  0.51315788  1
  C  C36  1  0.09212975  0.09212975  0.72361760  1
  C  C37  1  0.05700849  0.05700849  0.82892825  1
