# generated using pymatgen
data_K2S5
_symmetry_space_group_name_H-M   'P 1'
_cell_length_a   6.48895017
_cell_length_b   6.63951447
_cell_length_c   17.42228806
_cell_angle_alpha   90.00000000
_cell_angle_beta   90.00000000
_cell_angle_gamma   90.00000000
_symmetry_Int_Tables_number   1
_chemical_formula_structural   K2S5
_chemical_formula_sum   'K8 S20'
_cell_volume   750.61277390
_cell_formula_units_Z   4
loop_
 _symmetry_equiv_pos_site_id
 _symmetry_equiv_pos_as_xyz
  1  'x, y, z'
loop_
 _atom_site_type_symbol
 _atom_site_label
 _atom_site_symmetry_multiplicity
 _atom_site_fract_x
 _atom_site_fract_y
 _atom_site_fract_z
 _atom_site_occupancy
  K  K0  1  0.41384726  0.72909790  0.33345850  1
  K  K1  1  0.91384726  0.77090210  0.66654150  1
  K  K2  1  0.58615274  0.22909790  0.16654150  1
  K  K3  1  0.08615274  0.27090210  0.83345850  1
  K  K4  1  0.87562081  0.58501000  0.01039673  1
  K  K5  1  0.37562081  0.91499000  0.98960327  1
  K  K6  1  0.12437919  0.08501000  0.48960327  1
  K  K7  1  0.62437919  0.41499000  0.51039673  1
  S  S8  1  0.54738913  0.72938866  0.15567586  1
  S  S9  1  0.04738913  0.77061134  0.84432414  1
  S  S10  1  0.45261087  0.22938866  0.34432414  1
  S  S11  1  0.95261087  0.27061134  0.65567586  1
  S  S12  1  0.24515886  0.64281592  0.14571957  1
  S  S13  1  0.74515886  0.85718408  0.85428043  1
  S  S14  1  0.75484114  0.14281592  0.35428043  1
  S  S15  1  0.25484114  0.35718408  0.64571957  1
  S  S16  1  0.58753163  0.91406027  0.52927539  1
  S  S17  1  0.08753163  0.58593973  0.47072461  1
  S  S18  1  0.41246837  0.41406027  0.97072461  1
  S  S19  1  0.91246837  0.08593973  0.02927539  1
  S  S20  1  0.42456651  0.88137282  0.62905976  1
  S  S21  1  0.92456651  0.61862718  0.37094024  1
  S  S22  1  0.57543349  0.38137282  0.87094024  1
  S  S23  1  0.07543349  0.11862718  0.12905976  1
  S  S24  1  0.44366318  0.14011703  0.69485834  1
  S  S25  1  0.94366318  0.35988297  0.30514166  1
  S  S26  1  0.55633682  0.64011703  0.80514166  1
  S  S27  1  0.05633682  0.85988297  0.19485834  1
