# generated using pymatgen
data_Cd3SiO5
_symmetry_space_group_name_H-M   'P 1'
_cell_length_a   5.01468461
_cell_length_b   6.83687103
_cell_length_c   6.83687103
_cell_angle_alpha   90.00000000
_cell_angle_beta   90.00000000
_cell_angle_gamma   90.00000000
_symmetry_Int_Tables_number   1
_chemical_formula_structural   Cd3SiO5
_chemical_formula_sum   'Cd6 Si2 O10'
_cell_volume   234.40042727
_cell_formula_units_Z   2
loop_
 _symmetry_equiv_pos_site_id
 _symmetry_equiv_pos_as_xyz
  1  'x, y, z'
loop_
 _atom_site_type_symbol
 _atom_site_label
 _atom_site_symmetry_multiplicity
 _atom_site_fract_x
 _atom_site_fract_y
 _atom_site_fract_z
 _atom_site_occupancy
  Cd  Cd0  1  0.96595749  0.75000000  0.75000000  1
  Cd  Cd1  1  0.03404251  0.25000000  0.25000000  1
  Cd  Cd2  1  0.50000000  0.00000000  0.50000000  1
  Cd  Cd3  1  0.50000000  0.00000000  0.00000000  1
  Cd  Cd4  1  0.50000000  0.50000000  0.50000000  1
  Cd  Cd5  1  0.50000000  0.50000000  0.00000000  1
  Si  Si6  1  -0.00000000  0.75000000  0.25000000  1
  Si  Si7  1  -0.00000000  0.25000000  0.75000000  1
  O  O8  1  0.39546111  0.75000000  0.75000000  1
  O  O9  1  0.60453889  0.25000000  0.25000000  1
  O  O10  1  0.80139893  0.06083359  0.75000000  1
  O  O11  1  0.80139893  0.43916641  0.75000000  1
  O  O12  1  0.80139893  0.75000000  0.43916641  1
  O  O13  1  0.80139893  0.75000000  0.06083359  1
  O  O14  1  0.19860107  0.25000000  0.56083359  1
  O  O15  1  0.19860107  0.93916641  0.25000000  1
  O  O16  1  0.19860107  0.25000000  0.93916641  1
  O  O17  1  0.19860107  0.56083359  0.25000000  1
