# generated using pymatgen
data_Cs2Pt
_symmetry_space_group_name_H-M   'P 1'
_cell_length_a   5.80714491
_cell_length_b   5.80714423
_cell_length_c   7.89728909
_cell_angle_alpha   90.00000000
_cell_angle_beta   90.00000000
_cell_angle_gamma   119.99999758
_symmetry_Int_Tables_number   1
_chemical_formula_structural   Cs2Pt
_chemical_formula_sum   'Cs4 Pt2'
_cell_volume   230.63964163
_cell_formula_units_Z   2
loop_
 _symmetry_equiv_pos_site_id
 _symmetry_equiv_pos_as_xyz
  1  'x, y, z'
loop_
 _atom_site_type_symbol
 _atom_site_label
 _atom_site_symmetry_multiplicity
 _atom_site_fract_x
 _atom_site_fract_y
 _atom_site_fract_z
 _atom_site_occupancy
  Cs  Cs0  1  0.66666700  0.33333300  0.25000000  1
  Cs  Cs1  1  0.33333300  0.66666700  0.75000000  1
  Cs  Cs2  1  0.00000000  -0.00000000  0.00000000  1
  Cs  Cs3  1  0.00000000  -0.00000000  0.50000000  1
  Pt  Pt4  1  0.66666700  0.33333300  0.75000000  1
  Pt  Pt5  1  0.33333300  0.66666700  0.25000000  1
