# generated using pymatgen
data_SrTe
_symmetry_space_group_name_H-M   'P 1'
_cell_length_a   4.74586786
_cell_length_b   4.74586885
_cell_length_c   4.74586757
_cell_angle_alpha   59.99999432
_cell_angle_beta   59.99998738
_cell_angle_gamma   59.99999434
_symmetry_Int_Tables_number   1
_chemical_formula_structural   SrTe
_chemical_formula_sum   'Sr1 Te1'
_cell_volume   75.58435545
_cell_formula_units_Z   1
loop_
 _symmetry_equiv_pos_site_id
 _symmetry_equiv_pos_as_xyz
  1  'x, y, z'
loop_
 _atom_site_type_symbol
 _atom_site_label
 _atom_site_symmetry_multiplicity
 _atom_site_fract_x
 _atom_site_fract_y
 _atom_site_fract_z
 _atom_site_occupancy
  Sr  Sr0  1  -0.00000000  0.00000000  -0.00000000  1
  Te  Te1  1  0.50000000  0.50000000  0.50000000  1
