# generated using pymatgen
data_Ba13Si6(Sn4As11)2
_symmetry_space_group_name_H-M   'P 1'
_cell_length_a   12.42867001
_cell_length_b   12.42867001
_cell_length_c   12.42867001
_cell_angle_alpha   108.16469983
_cell_angle_beta   108.16469983
_cell_angle_gamma   112.11710463
_symmetry_Int_Tables_number   1
_chemical_formula_structural   Ba13Si6(Sn4As11)2
_chemical_formula_sum   'Ba13 Si6 Sn8 As22'
_cell_volume   1475.54816936
_cell_formula_units_Z   1
loop_
 _symmetry_equiv_pos_site_id
 _symmetry_equiv_pos_as_xyz
  1  'x, y, z'
loop_
 _atom_site_type_symbol
 _atom_site_label
 _atom_site_symmetry_multiplicity
 _atom_site_fract_x
 _atom_site_fract_y
 _atom_site_fract_z
 _atom_site_occupancy
  Ba  Ba0  1  0.54254912  0.78393765  0.49326778  1
  Ba  Ba1  1  0.29066987  0.04928134  0.50673222  1
  Ba  Ba2  1  0.70933013  0.21606235  0.75861147  1
  Ba  Ba3  1  0.45745088  0.95071866  0.24138853  1
  Ba  Ba4  1  0.95071866  0.45745088  0.24138853  1
  Ba  Ba5  1  0.21606235  0.70933013  0.75861147  1
  Ba  Ba6  1  0.78393765  0.54254912  0.49326778  1
  Ba  Ba7  1  0.04928134  0.29066987  0.50673222  1
  Ba  Ba8  1  0.83999946  0.83999946  0.33464811  1
  Ba  Ba9  1  0.50535135  0.50535135  0.66535189  1
  Ba  Ba10  1  0.49464865  0.16000054  -0.00000000  1
  Ba  Ba11  1  0.16000054  0.49464865  0.00000000  1
  Ba  Ba12  1  -0.00000000  -0.00000000  0.00000000  1
  Si  Si13  1  0.31763669  0.31763669  0.83099207  1
  Si  Si14  1  0.48664463  0.48664463  0.16900793  1
  Si  Si15  1  0.51335537  0.68236331  0.00000000  1
  Si  Si16  1  0.68236331  0.51335537  0.00000000  1
  Si  Si17  1  0.75000000  0.25000000  0.50000000  1
  Si  Si18  1  0.25000000  0.75000000  0.50000000  1
  Sn  Sn19  1  0.94078299  0.11838361  0.72125460  1
  Sn  Sn20  1  0.39712901  0.21952839  0.27874540  1
  Sn  Sn21  1  0.60287099  0.88161539  0.82239838  1
  Sn  Sn22  1  0.05921701  0.78047161  0.17760162  1
  Sn  Sn23  1  0.78047161  0.05921701  0.17760162  1
  Sn  Sn24  1  0.88161639  0.60287099  0.82239838  1
  Sn  Sn25  1  0.11838461  0.94078299  0.72125460  1
  Sn  Sn26  1  0.21952839  0.39712901  0.27874540  1
  As  As27  1  0.74833588  0.05559207  0.49152867  1
  As  As28  1  0.56406340  0.25680721  0.50847133  1
  As  As29  1  0.43593660  0.94440793  0.69274381  1
  As  As30  1  0.25166412  0.74319279  0.30725619  1
  As  As31  1  0.74319279  0.25166412  0.30725619  1
  As  As32  1  0.94440793  0.43593660  0.69274381  1
  As  As33  1  0.05559207  0.74833588  0.49152867  1
  As  As34  1  0.25680721  0.56406340  0.50847133  1
  As  As35  1  0.68635184  0.50000000  0.18635184  1
  As  As36  1  0.31364816  0.50000000  0.81364816  1
  As  As37  1  0.50000000  0.31364816  0.81364816  1
  As  As38  1  0.50000000  0.68635184  0.18635184  1
  As  As39  1  0.12546438  0.12546438  0.64374465  1
  As  As40  1  0.48171973  0.48171973  0.35625535  1
  As  As41  1  0.51828027  0.87453562  -0.00000000  1
  As  As42  1  0.87453562  0.51828027  0.00000000  1
  As  As43  1  0.86116137  0.86116137  0.65980298  1
  As  As44  1  0.20135839  0.20135839  0.34019702  1
  As  As45  1  0.79864161  0.13883863  -0.00000000  1
  As  As46  1  0.13883863  0.79864161  -0.00000000  1
  As  As47  1  0.71115055  0.71115055  -0.00000000  1
  As  As48  1  0.28884945  0.28884945  0.00000000  1
