# generated using pymatgen
data_CsP7
_symmetry_space_group_name_H-M   'P 1'
_cell_length_a   9.30060689
_cell_length_b   9.69354759
_cell_length_c   9.74508096
_cell_angle_alpha   90.00000000
_cell_angle_beta   90.00000000
_cell_angle_gamma   90.00000000
_symmetry_Int_Tables_number   1
_chemical_formula_structural   CsP7
_chemical_formula_sum   'Cs4 P28'
_cell_volume   878.57630581
_cell_formula_units_Z   4
loop_
 _symmetry_equiv_pos_site_id
 _symmetry_equiv_pos_as_xyz
  1  'x, y, z'
loop_
 _atom_site_type_symbol
 _atom_site_label
 _atom_site_symmetry_multiplicity
 _atom_site_fract_x
 _atom_site_fract_y
 _atom_site_fract_z
 _atom_site_occupancy
  Cs  Cs0  1  0.78680693  0.25000000  0.00000000  1
  Cs  Cs1  1  0.21319307  0.75000000  0.50000000  1
  Cs  Cs2  1  0.21319307  0.75000000  0.00000000  1
  Cs  Cs3  1  0.78680693  0.25000000  0.50000000  1
  P  P4  1  0.56381705  0.83815411  0.75000000  1
  P  P5  1  0.43618295  0.16184589  0.25000000  1
  P  P6  1  0.56381705  0.66184589  0.25000000  1
  P  P7  1  0.43618295  0.33815411  0.75000000  1
  P  P8  1  0.83383077  0.63037006  0.63579494  1
  P  P9  1  0.16616923  0.36962994  0.13579494  1
  P  P10  1  0.83383077  0.86962994  0.36420506  1
  P  P11  1  0.16616923  0.13037006  0.86420506  1
  P  P12  1  0.16616923  0.36962994  0.36420506  1
  P  P13  1  0.83383077  0.63037006  0.86420506  1
  P  P14  1  0.16616923  0.13037006  0.63579494  1
  P  P15  1  0.83383077  0.86962994  0.13579494  1
  P  P16  1  0.74862859  0.96914594  0.75000000  1
  P  P17  1  0.25137141  0.03085406  0.25000000  1
  P  P18  1  0.74862859  0.53085406  0.25000000  1
  P  P19  1  0.25137141  0.46914594  0.75000000  1
  P  P20  1  0.91245711  0.81556410  0.75000000  1
  P  P21  1  0.08754289  0.18443590  0.25000000  1
  P  P22  1  0.91245711  0.68443590  0.25000000  1
  P  P23  1  0.08754289  0.31556410  0.75000000  1
  P  P24  1  0.60772946  0.68131735  0.90913045  1
  P  P25  1  0.39227054  0.31868265  0.40913045  1
  P  P26  1  0.60772946  0.81868265  0.09086955  1
  P  P27  1  0.39227054  0.18131735  0.59086955  1
  P  P28  1  0.39227054  0.31868265  0.09086955  1
  P  P29  1  0.60772946  0.68131735  0.59086955  1
  P  P30  1  0.39227054  0.18131735  0.90913045  1
  P  P31  1  0.60772946  0.81868265  0.40913045  1
