# generated using pymatgen
data_Rb5SiAs3
_symmetry_space_group_name_H-M   'P 1'
_cell_length_a   5.66839211
_cell_length_b   14.23092917
_cell_length_c   15.62405854
_cell_angle_alpha   90.00000000
_cell_angle_beta   90.00000000
_cell_angle_gamma   90.00000000
_symmetry_Int_Tables_number   1
_chemical_formula_structural   Rb5SiAs3
_chemical_formula_sum   'Rb20 Si4 As12'
_cell_volume   1260.33790925
_cell_formula_units_Z   4
loop_
 _symmetry_equiv_pos_site_id
 _symmetry_equiv_pos_as_xyz
  1  'x, y, z'
loop_
 _atom_site_type_symbol
 _atom_site_label
 _atom_site_symmetry_multiplicity
 _atom_site_fract_x
 _atom_site_fract_y
 _atom_site_fract_z
 _atom_site_occupancy
  Rb  Rb0  1  0.75000000  0.44582230  0.14821338  1
  Rb  Rb1  1  0.25000000  0.55417770  0.85178662  1
  Rb  Rb2  1  0.75000000  0.94582230  0.35178662  1
  Rb  Rb3  1  0.25000000  0.05417770  0.64821338  1
  Rb  Rb4  1  0.25000000  0.27974322  0.78508943  1
  Rb  Rb5  1  0.75000000  0.72025678  0.21491057  1
  Rb  Rb6  1  0.25000000  0.77974322  0.71491057  1
  Rb  Rb7  1  0.75000000  0.22025678  0.28508943  1
  Rb  Rb8  1  0.25000000  0.85275839  0.45815147  1
  Rb  Rb9  1  0.75000000  0.14724161  0.54184853  1
  Rb  Rb10  1  0.25000000  0.35275839  0.04184853  1
  Rb  Rb11  1  0.75000000  0.64724161  0.95815147  1
  Rb  Rb12  1  0.25000000  0.61531817  0.31899304  1
  Rb  Rb13  1  0.75000000  0.38468183  0.68100696  1
  Rb  Rb14  1  0.25000000  0.11531817  0.18100696  1
  Rb  Rb15  1  0.75000000  0.88468183  0.81899304  1
  Rb  Rb16  1  0.25000000  0.56784148  0.55572533  1
  Rb  Rb17  1  0.75000000  0.43215852  0.44427467  1
  Rb  Rb18  1  0.25000000  0.06784148  0.94427467  1
  Rb  Rb19  1  0.75000000  0.93215852  0.05572533  1
  Si  Si20  1  0.75000000  0.23865363  0.92402243  1
  Si  Si21  1  0.25000000  0.76134637  0.07597757  1
  Si  Si22  1  0.75000000  0.73865363  0.57597757  1
  Si  Si23  1  0.25000000  0.26134637  0.42402243  1
  As  As24  1  0.25000000  0.31296661  0.56311417  1
  As  As25  1  0.75000000  0.68703339  0.43688583  1
  As  As26  1  0.25000000  0.81296661  0.93688583  1
  As  As27  1  0.75000000  0.18703339  0.06311417  1
  As  As28  1  0.25000000  0.10178954  0.40339785  1
  As  As29  1  0.75000000  0.89821046  0.59660215  1
  As  As30  1  0.25000000  0.60178954  0.09660215  1
  As  As31  1  0.75000000  0.39821046  0.90339785  1
  As  As32  1  0.75000000  0.13470881  0.81068208  1
  As  As33  1  0.25000000  0.86529119  0.18931792  1
  As  As34  1  0.75000000  0.63470881  0.68931792  1
  As  As35  1  0.25000000  0.36529119  0.31068208  1
