# generated using pymatgen
data_KS3
_symmetry_space_group_name_H-M   'P 1'
_cell_length_a   6.49783750
_cell_length_b   11.94969858
_cell_length_c   12.02538719
_cell_angle_alpha   90.00000000
_cell_angle_beta   104.72469726
_cell_angle_gamma   90.00000000
_symmetry_Int_Tables_number   1
_chemical_formula_structural   KS3
_chemical_formula_sum   'K8 S24'
_cell_volume   903.07208949
_cell_formula_units_Z   8
loop_
 _symmetry_equiv_pos_site_id
 _symmetry_equiv_pos_as_xyz
  1  'x, y, z'
loop_
 _atom_site_type_symbol
 _atom_site_label
 _atom_site_symmetry_multiplicity
 _atom_site_fract_x
 _atom_site_fract_y
 _atom_site_fract_z
 _atom_site_occupancy
  K  K0  1  0.80204762  0.63818096  0.01946372  1
  K  K1  1  0.30204762  0.86181904  0.51946372  1
  K  K2  1  0.19795238  0.36181904  0.98053628  1
  K  K3  1  0.69795238  0.13818096  0.48053628  1
  K  K4  1  0.71456674  0.61493062  0.41718328  1
  K  K5  1  0.21456674  0.88506938  0.91718328  1
  K  K6  1  0.28543326  0.38506938  0.58281672  1
  K  K7  1  0.78543326  0.11493062  0.08281672  1
  S  S8  1  0.70370919  0.37419769  0.99466728  1
  S  S9  1  0.20370919  0.12580231  0.49466728  1
  S  S10  1  0.29629081  0.62580231  0.00533272  1
  S  S11  1  0.79629081  0.87419769  0.50533272  1
  S  S12  1  0.68978375  0.41735216  0.15717635  1
  S  S13  1  0.18978375  0.08264784  0.65717635  1
  S  S14  1  0.31021625  0.58264784  0.84282365  1
  S  S15  1  0.81021625  0.91735216  0.34282365  1
  S  S16  1  0.89761556  0.32594700  0.27696648  1
  S  S17  1  0.39761556  0.17405300  0.77696648  1
  S  S18  1  0.10238444  0.67405300  0.72303352  1
  S  S19  1  0.60238444  0.82594700  0.22303352  1
  S  S20  1  0.21286413  0.38611033  0.27307700  1
  S  S21  1  0.71286413  0.11388967  0.77307700  1
  S  S22  1  0.78713587  0.61388967  0.72692300  1
  S  S23  1  0.28713587  0.88611033  0.22692300  1
  S  S24  1  0.20234362  0.55507662  0.27639591  1
  S  S25  1  0.70234362  0.94492338  0.77639591  1
  S  S26  1  0.79765638  0.44492338  0.72360409  1
  S  S27  1  0.29765638  0.05507662  0.22360409  1
  S  S28  1  0.21937660  0.61086961  0.43877878  1
  S  S29  1  0.71937660  0.88913039  0.93877878  1
  S  S30  1  0.78062340  0.38913039  0.56122122  1
  S  S31  1  0.28062340  0.11086961  0.06122122  1
