# generated using pymatgen
data_Rb3P11
_symmetry_space_group_name_H-M   'P 1'
_cell_length_a   10.81329469
_cell_length_b   10.88100239
_cell_length_c   14.43985579
_cell_angle_alpha   90.00000000
_cell_angle_beta   90.00000000
_cell_angle_gamma   90.00000000
_symmetry_Int_Tables_number   1
_chemical_formula_structural   Rb3P11
_chemical_formula_sum   'Rb12 P44'
_cell_volume   1698.98600101
_cell_formula_units_Z   4
loop_
 _symmetry_equiv_pos_site_id
 _symmetry_equiv_pos_as_xyz
  1  'x, y, z'
loop_
 _atom_site_type_symbol
 _atom_site_label
 _atom_site_symmetry_multiplicity
 _atom_site_fract_x
 _atom_site_fract_y
 _atom_site_fract_z
 _atom_site_occupancy
  Rb  Rb0  1  0.75000000  0.00000000  0.29233916  1
  Rb  Rb1  1  0.25000000  0.50000000  0.20766084  1
  Rb  Rb2  1  0.25000000  0.00000000  0.70766084  1
  Rb  Rb3  1  0.75000000  0.50000000  0.79233916  1
  Rb  Rb4  1  0.42894827  0.22803043  0.98999297  1
  Rb  Rb5  1  0.92894827  0.27196957  0.51000703  1
  Rb  Rb6  1  0.57105173  0.72803043  0.51000703  1
  Rb  Rb7  1  0.07105173  0.77196957  0.98999297  1
  Rb  Rb8  1  0.57105173  0.77196957  0.01000703  1
  Rb  Rb9  1  0.07105173  0.72803043  0.48999297  1
  Rb  Rb10  1  0.42894827  0.27196957  0.48999297  1
  Rb  Rb11  1  0.92894827  0.22803043  0.01000703  1
  P  P12  1  0.75000000  0.00000000  0.53313296  1
  P  P13  1  0.25000000  0.50000000  0.96686704  1
  P  P14  1  0.25000000  0.00000000  0.46686704  1
  P  P15  1  0.75000000  0.50000000  0.03313296  1
  P  P16  1  0.01374601  0.50728049  0.65925414  1
  P  P17  1  0.51374601  0.99271951  0.84074586  1
  P  P18  1  0.98625399  0.00728049  0.84074586  1
  P  P19  1  0.48625399  0.49271951  0.65925414  1
  P  P20  1  0.98625399  0.49271951  0.34074586  1
  P  P21  1  0.48625399  0.00728049  0.15925414  1
  P  P22  1  0.01374601  0.99271951  0.15925414  1
  P  P23  1  0.51374601  0.50728049  0.34074586  1
  P  P24  1  0.24587467  0.32603097  0.76296137  1
  P  P25  1  0.74587467  0.17396903  0.73703863  1
  P  P26  1  0.75412533  0.82603097  0.73703863  1
  P  P27  1  0.25412533  0.67396903  0.76296137  1
  P  P28  1  0.75412533  0.67396903  0.23703863  1
  P  P29  1  0.25412533  0.82603097  0.26296137  1
  P  P30  1  0.24587467  0.17396903  0.26296137  1
  P  P31  1  0.74587467  0.32603097  0.23703863  1
  P  P32  1  0.43095495  0.41388191  0.78942510  1
  P  P33  1  0.93095495  0.08611809  0.71057490  1
  P  P34  1  0.56904505  0.91388191  0.71057490  1
  P  P35  1  0.06904505  0.58611809  0.78942510  1
  P  P36  1  0.56904505  0.58611809  0.21057490  1
  P  P37  1  0.06904505  0.91388191  0.28942510  1
  P  P38  1  0.43095495  0.08611809  0.28942510  1
  P  P39  1  0.93095495  0.41388191  0.21057490  1
  P  P40  1  0.12399029  0.42007392  0.86750388  1
  P  P41  1  0.62399029  0.07992608  0.63249612  1
  P  P42  1  0.87600971  0.92007392  0.63249612  1
  P  P43  1  0.37600971  0.57992608  0.86750388  1
  P  P44  1  0.87600971  0.57992608  0.13249612  1
  P  P45  1  0.37600971  0.92007392  0.36750388  1
  P  P46  1  0.12399029  0.07992608  0.36750388  1
  P  P47  1  0.62399029  0.42007392  0.13249612  1
  P  P48  1  0.18776784  0.41928757  0.63039722  1
  P  P49  1  0.68776784  0.08071243  0.86960278  1
  P  P50  1  0.81223216  0.91928757  0.86960278  1
  P  P51  1  0.31223216  0.58071243  0.63039722  1
  P  P52  1  0.81223216  0.58071243  0.36960278  1
  P  P53  1  0.31223216  0.91928757  0.13039722  1
  P  P54  1  0.18776784  0.08071243  0.13039722  1
  P  P55  1  0.68776784  0.41928757  0.36960278  1
