# generated using pymatgen
data_CsSi
_symmetry_space_group_name_H-M   'P 1'
_cell_length_a   13.62447282
_cell_length_b   13.62447282
_cell_length_c   13.62447282
_cell_angle_alpha   90.00000000
_cell_angle_beta   90.00000000
_cell_angle_gamma   90.00000000
_symmetry_Int_Tables_number   1
_chemical_formula_structural   CsSi
_chemical_formula_sum   'Cs32 Si32'
_cell_volume   2529.05992891
_cell_formula_units_Z   32
loop_
 _symmetry_equiv_pos_site_id
 _symmetry_equiv_pos_as_xyz
  1  'x, y, z'
loop_
 _atom_site_type_symbol
 _atom_site_label
 _atom_site_symmetry_multiplicity
 _atom_site_fract_x
 _atom_site_fract_y
 _atom_site_fract_z
 _atom_site_occupancy
  Cs  Cs0  1  0.06592868  0.33685973  0.14181900  1
  Cs  Cs1  1  0.83685973  0.43407132  0.35818100  1
  Cs  Cs2  1  0.56592868  0.64181900  0.83685973  1
  Cs  Cs3  1  0.43407132  0.64181900  0.16314027  1
  Cs  Cs4  1  0.64181900  0.83685973  0.56592868  1
  Cs  Cs5  1  0.35818100  0.16314027  0.56592868  1
  Cs  Cs6  1  0.66314027  0.85818100  0.06592868  1
  Cs  Cs7  1  0.66314027  0.14181900  0.93407132  1
  Cs  Cs8  1  0.33685973  0.85818100  0.93407132  1
  Cs  Cs9  1  0.14181900  0.93407132  0.66314027  1
  Cs  Cs10  1  0.93407132  0.33685973  0.85818100  1
  Cs  Cs11  1  0.93407132  0.66314027  0.14181900  1
  Cs  Cs12  1  0.85818100  0.06592868  0.66314027  1
  Cs  Cs13  1  0.06592868  0.66314027  0.85818100  1
  Cs  Cs14  1  0.85818100  0.93407132  0.33685973  1
  Cs  Cs15  1  0.14181900  0.06592868  0.33685973  1
  Cs  Cs16  1  0.83685973  0.56592868  0.64181900  1
  Cs  Cs17  1  0.35818100  0.83685973  0.43407132  1
  Cs  Cs18  1  0.64181900  0.16314027  0.43407132  1
  Cs  Cs19  1  0.56592868  0.35818100  0.16314027  1
  Cs  Cs20  1  0.43407132  0.35818100  0.83685973  1
  Cs  Cs21  1  0.16314027  0.43407132  0.64181900  1
  Cs  Cs22  1  0.16314027  0.56592868  0.35818100  1
  Cs  Cs23  1  0.33685973  0.14181900  0.06592868  1
  Cs  Cs24  1  0.83300325  0.83300325  0.83300325  1
  Cs  Cs25  1  0.66699675  0.33300325  0.66699675  1
  Cs  Cs26  1  0.33300325  0.66699675  0.66699675  1
  Cs  Cs27  1  0.66699675  0.66699675  0.33300325  1
  Cs  Cs28  1  0.83300325  0.16699675  0.16699675  1
  Cs  Cs29  1  0.16699675  0.16699675  0.83300325  1
  Cs  Cs30  1  0.16699675  0.83300325  0.16699675  1
  Cs  Cs31  1  0.33300325  0.33300325  0.33300325  1
  Si  Si32  1  0.55856952  0.93277549  0.81166081  1
  Si  Si33  1  0.55856952  0.06722451  0.18833919  1
  Si  Si34  1  0.93277549  0.81166081  0.55856952  1
  Si  Si35  1  0.06722451  0.81166081  0.44143048  1
  Si  Si36  1  0.81166081  0.55856952  0.93277549  1
  Si  Si37  1  0.18833919  0.44143048  0.93277549  1
  Si  Si38  1  0.94143048  0.68833919  0.43277549  1
  Si  Si39  1  0.94143048  0.31166081  0.56722451  1
  Si  Si40  1  0.05856952  0.68833919  0.56722451  1
  Si  Si41  1  0.31166081  0.56722451  0.94143048  1
  Si  Si42  1  0.56722451  0.05856952  0.68833919  1
  Si  Si43  1  0.56722451  0.94143048  0.31166081  1
  Si  Si44  1  0.68833919  0.43277549  0.94143048  1
  Si  Si45  1  0.43277549  0.94143048  0.68833919  1
  Si  Si46  1  0.68833919  0.56722451  0.05856952  1
  Si  Si47  1  0.06259695  0.06259695  0.06259695  1
  Si  Si48  1  0.43277549  0.05856952  0.31166081  1
  Si  Si49  1  0.18833919  0.55856952  0.06722451  1
  Si  Si50  1  0.81166081  0.44143048  0.06722451  1
  Si  Si51  1  0.93277549  0.18833919  0.44143048  1
  Si  Si52  1  0.06722451  0.18833919  0.55856952  1
  Si  Si53  1  0.44143048  0.06722451  0.81166081  1
  Si  Si54  1  0.44143048  0.93277549  0.18833919  1
  Si  Si55  1  0.05856952  0.31166081  0.43277549  1
  Si  Si56  1  0.56259695  0.56259695  0.56259695  1
  Si  Si57  1  0.93740305  0.06259695  0.93740305  1
  Si  Si58  1  0.06259695  0.93740305  0.93740305  1
  Si  Si59  1  0.93740305  0.93740305  0.06259695  1
  Si  Si60  1  0.56259695  0.43740305  0.43740305  1
  Si  Si61  1  0.43740305  0.43740305  0.56259695  1
  Si  Si62  1  0.43740305  0.56259695  0.43740305  1
  Si  Si63  1  0.31166081  0.43277549  0.05856952  1
