# generated using pymatgen
data_CsS3
_symmetry_space_group_name_H-M   'P 1'
_cell_length_a   4.74673294
_cell_length_b   9.31531015
_cell_length_c   11.65160329
_cell_angle_alpha   84.93463838
_cell_angle_beta   84.69250747
_cell_angle_gamma   89.59981206
_symmetry_Int_Tables_number   1
_chemical_formula_structural   CsS3
_chemical_formula_sum   'Cs4 S12'
_cell_volume   510.98964782
_cell_formula_units_Z   4
loop_
 _symmetry_equiv_pos_site_id
 _symmetry_equiv_pos_as_xyz
  1  'x, y, z'
loop_
 _atom_site_type_symbol
 _atom_site_label
 _atom_site_symmetry_multiplicity
 _atom_site_fract_x
 _atom_site_fract_y
 _atom_site_fract_z
 _atom_site_occupancy
  Cs  Cs0  1  0.95561435  0.67327254  0.09602159  1
  Cs  Cs1  1  0.04438565  0.32672746  0.90397841  1
  Cs  Cs2  1  0.89306652  0.30799885  0.38756873  1
  Cs  Cs3  1  0.10693348  0.69200115  0.61243127  1
  S  S4  1  0.46429191  0.34752615  0.14821587  1
  S  S5  1  0.53570809  0.65247385  0.85178413  1
  S  S6  1  0.42274139  0.61185274  0.32956360  1
  S  S7  1  0.57725861  0.38814726  0.67043640  1
  S  S8  1  0.48575151  0.14014446  0.10331446  1
  S  S9  1  0.51424849  0.85985554  0.89668554  1
  S  S10  1  0.20240542  0.01361657  0.21004452  1
  S  S11  1  0.79759458  0.98638343  0.78995548  1
  S  S12  1  0.35724328  0.96438050  0.37083767  1
  S  S13  1  0.64275672  0.03561950  0.62916233  1
  S  S14  1  0.63119591  0.79059507  0.36372300  1
  S  S15  1  0.36880409  0.20940493  0.63627700  1
