# generated using pymatgen
data_BrCl
_symmetry_space_group_name_H-M   'P 1'
_cell_length_a   4.11461008
_cell_length_b   4.11461008
_cell_length_c   7.70819439
_cell_angle_alpha   90.00000000
_cell_angle_beta   90.00000000
_cell_angle_gamma   109.38542286
_symmetry_Int_Tables_number   1
_chemical_formula_structural   BrCl
_chemical_formula_sum   'Br2 Cl2'
_cell_volume   123.10144484
_cell_formula_units_Z   2
loop_
 _symmetry_equiv_pos_site_id
 _symmetry_equiv_pos_as_xyz
  1  'x, y, z'
loop_
 _atom_site_type_symbol
 _atom_site_label
 _atom_site_symmetry_multiplicity
 _atom_site_fract_x
 _atom_site_fract_y
 _atom_site_fract_z
 _atom_site_occupancy
  Br  Br0  1  -0.00009820  -0.00009820  0.37475055  1
  Br  Br1  1  0.00009820  0.00009820  0.87475055  1
  Cl  Cl2  1  0.69922972  0.69922972  0.62524945  1
  Cl  Cl3  1  0.30077028  0.30077028  0.12524945  1
