# generated using pymatgen
data_HgS4
_symmetry_space_group_name_H-M   'P 1'
_cell_length_a   13.12593351
_cell_length_b   12.04261065
_cell_length_c   14.07586752
_cell_angle_alpha   90.00000000
_cell_angle_beta   90.00000000
_cell_angle_gamma   90.00000000
_symmetry_Int_Tables_number   1
_chemical_formula_structural   HgS4
_chemical_formula_sum   'Hg4 S16'
_cell_volume   2224.97951083
_cell_formula_units_Z   4
loop_
 _symmetry_equiv_pos_site_id
 _symmetry_equiv_pos_as_xyz
  1  'x, y, z'
loop_
 _atom_site_type_symbol
 _atom_site_label
 _atom_site_symmetry_multiplicity
 _atom_site_fract_x
 _atom_site_fract_y
 _atom_site_fract_z
 _atom_site_occupancy
  Hg  Hg0  1  0.89014770  0.60546820  0.25000000  1
  Hg  Hg1  1  0.10985230  0.39453180  0.75000000  1
  Hg  Hg2  1  0.89014770  0.89453180  0.75000000  1
  Hg  Hg3  1  0.10985230  0.10546820  0.25000000  1
  S  S4  1  0.48292090  0.88405674  0.64895607  1
  S  S5  1  0.51707910  0.11594326  0.14895607  1
  S  S6  1  0.48292090  0.61594326  0.35104393  1
  S  S7  1  0.51707910  0.38405674  0.85104393  1
  S  S8  1  0.51707910  0.11594326  0.35104393  1
  S  S9  1  0.48292090  0.88405674  0.85104393  1
  S  S10  1  0.51707910  0.38405674  0.64895607  1
  S  S11  1  0.48292090  0.61594326  0.14895607  1
  S  S12  1  0.62533810  0.62951147  0.15460175  1
  S  S13  1  0.37466190  0.37048753  0.65460175  1
  S  S14  1  0.62533810  0.87048853  0.84539825  1
  S  S15  1  0.37466190  0.12951147  0.34539825  1
  S  S16  1  0.37466190  0.37048753  0.84539825  1
  S  S17  1  0.62533810  0.62951147  0.34539825  1
  S  S18  1  0.37466190  0.12951147  0.15460175  1
  S  S19  1  0.62533810  0.87048853  0.65460175  1
