# generated using pymatgen
data_CsGe
_symmetry_space_group_name_H-M   'P 1'
_cell_length_a   13.72652343
_cell_length_b   13.72652343
_cell_length_c   13.72652343
_cell_angle_alpha   90.00000000
_cell_angle_beta   90.00000000
_cell_angle_gamma   90.00000000
_symmetry_Int_Tables_number   1
_chemical_formula_structural   CsGe
_chemical_formula_sum   'Cs32 Ge32'
_cell_volume   2586.31647992
_cell_formula_units_Z   32
loop_
 _symmetry_equiv_pos_site_id
 _symmetry_equiv_pos_as_xyz
  1  'x, y, z'
loop_
 _atom_site_type_symbol
 _atom_site_label
 _atom_site_symmetry_multiplicity
 _atom_site_fract_x
 _atom_site_fract_y
 _atom_site_fract_z
 _atom_site_occupancy
  Cs  Cs0  1  0.33286708  0.33286708  0.33286708  1
  Cs  Cs1  1  0.16713292  0.83286708  0.16713292  1
  Cs  Cs2  1  0.16713292  0.16713292  0.83286708  1
  Cs  Cs3  1  0.83286708  0.16713292  0.16713292  1
  Cs  Cs4  1  0.66713292  0.66713292  0.33286708  1
  Cs  Cs5  1  0.33286708  0.66713292  0.66713292  1
  Cs  Cs6  1  0.66713292  0.33286708  0.66713292  1
  Cs  Cs7  1  0.83286708  0.83286708  0.83286708  1
  Cs  Cs8  1  0.33682776  0.14023570  0.06515777  1
  Cs  Cs9  1  0.16317224  0.56515777  0.35976430  1
  Cs  Cs10  1  0.16317224  0.43484223  0.64023570  1
  Cs  Cs11  1  0.43484223  0.35976430  0.83682776  1
  Cs  Cs12  1  0.56515777  0.35976430  0.16317224  1
  Cs  Cs13  1  0.64023570  0.16317224  0.43484223  1
  Cs  Cs14  1  0.35976430  0.83682776  0.43484223  1
  Cs  Cs15  1  0.06515777  0.33682776  0.14023570  1
  Cs  Cs16  1  0.14023570  0.06515777  0.33682776  1
  Cs  Cs17  1  0.85976430  0.93484223  0.33682776  1
  Cs  Cs18  1  0.06515777  0.66317224  0.85976430  1
  Cs  Cs19  1  0.85976430  0.06515777  0.66317224  1
  Cs  Cs20  1  0.93484223  0.66317224  0.14023570  1
  Cs  Cs21  1  0.93484223  0.33682776  0.85976430  1
  Cs  Cs22  1  0.14023570  0.93484223  0.66317224  1
  Cs  Cs23  1  0.33682776  0.85976430  0.93484223  1
  Cs  Cs24  1  0.66317224  0.14023570  0.93484223  1
  Cs  Cs25  1  0.66317224  0.85976430  0.06515777  1
  Cs  Cs26  1  0.35976430  0.16317224  0.56515777  1
  Cs  Cs27  1  0.64023570  0.83682776  0.56515777  1
  Cs  Cs28  1  0.43484223  0.64023570  0.16317224  1
  Cs  Cs29  1  0.56515777  0.64023570  0.83682776  1
  Cs  Cs30  1  0.83682776  0.43484223  0.35976430  1
  Cs  Cs31  1  0.83682776  0.56515777  0.64023570  1
  Ge  Ge32  1  0.06586836  0.06586836  0.06586836  1
  Ge  Ge33  1  0.43413164  0.56586836  0.43413164  1
  Ge  Ge34  1  0.43413164  0.43413164  0.56586836  1
  Ge  Ge35  1  0.56586836  0.43413164  0.43413164  1
  Ge  Ge36  1  0.93413164  0.93413164  0.06586836  1
  Ge  Ge37  1  0.06586836  0.93413164  0.93413164  1
  Ge  Ge38  1  0.93413164  0.06586836  0.93413164  1
  Ge  Ge39  1  0.56586836  0.56586836  0.56586836  1
  Ge  Ge40  1  0.06084156  0.31470269  0.42810149  1
  Ge  Ge41  1  0.43915744  0.92810149  0.18529731  1
  Ge  Ge42  1  0.43915744  0.07189851  0.81470269  1
  Ge  Ge43  1  0.07189851  0.18529731  0.56084256  1
  Ge  Ge44  1  0.92810149  0.18529731  0.43915744  1
  Ge  Ge45  1  0.81470269  0.43915744  0.07189851  1
  Ge  Ge46  1  0.18529731  0.56084256  0.07189851  1
  Ge  Ge47  1  0.42810149  0.06084156  0.31470269  1
  Ge  Ge48  1  0.31470269  0.42810149  0.06084156  1
  Ge  Ge49  1  0.68529731  0.57189851  0.06084156  1
  Ge  Ge50  1  0.42810149  0.93915744  0.68529731  1
  Ge  Ge51  1  0.68529731  0.42810149  0.93915744  1
  Ge  Ge52  1  0.57189851  0.93915744  0.31470269  1
  Ge  Ge53  1  0.57189851  0.06084156  0.68529731  1
  Ge  Ge54  1  0.31470269  0.57189851  0.93915744  1
  Ge  Ge55  1  0.06084156  0.68529731  0.57189851  1
  Ge  Ge56  1  0.93915744  0.31470269  0.57189851  1
  Ge  Ge57  1  0.93915744  0.68529731  0.42810149  1
  Ge  Ge58  1  0.18529731  0.43915744  0.92810149  1
  Ge  Ge59  1  0.81470269  0.56084256  0.92810149  1
  Ge  Ge60  1  0.07189851  0.81470269  0.43915744  1
  Ge  Ge61  1  0.92810149  0.81470269  0.56084256  1
  Ge  Ge62  1  0.56084256  0.07189851  0.18529731  1
  Ge  Ge63  1  0.56084256  0.92810149  0.81470269  1
