# generated using pymatgen
data_PdF3
_symmetry_space_group_name_H-M   'P 1'
_cell_length_a   5.52803734
_cell_length_b   5.52771313
_cell_length_c   5.52630447
_cell_angle_alpha   53.75452754
_cell_angle_beta   53.77428144
_cell_angle_gamma   53.74900077
_symmetry_Int_Tables_number   1
_chemical_formula_structural   PdF3
_chemical_formula_sum   'Pd2 F6'
_cell_volume   101.98757517
_cell_formula_units_Z   2
loop_
 _symmetry_equiv_pos_site_id
 _symmetry_equiv_pos_as_xyz
  1  'x, y, z'
loop_
 _atom_site_type_symbol
 _atom_site_label
 _atom_site_symmetry_multiplicity
 _atom_site_fract_x
 _atom_site_fract_y
 _atom_site_fract_z
 _atom_site_occupancy
  Pd  Pd0  1  0.50000100  0.50000000  0.50000000  1
  Pd  Pd1  1  0.99999900  0.00000000  0.00000100  1
  F  F2  1  0.73464645  0.10239387  0.42254746  1
  F  F3  1  0.10263277  0.42251333  0.73423773  1
  F  F4  1  0.57731758  0.26560167  0.89763646  1
  F  F5  1  0.89736723  0.57748667  0.26576227  1
  F  F6  1  0.26535355  0.89760613  0.57745154  1
  F  F7  1  0.42268242  0.73439833  0.10236354  1
