# generated using pymatgen
data_K3P11
_symmetry_space_group_name_H-M   'P 1'
_cell_length_a   10.62268762
_cell_length_b   10.61147584
_cell_length_c   13.80465904
_cell_angle_alpha   90.00000000
_cell_angle_beta   90.00000000
_cell_angle_gamma   90.00000000
_symmetry_Int_Tables_number   1
_chemical_formula_structural   K3P11
_chemical_formula_sum   'K12 P44'
_cell_volume   1556.09420203
_cell_formula_units_Z   4
loop_
 _symmetry_equiv_pos_site_id
 _symmetry_equiv_pos_as_xyz
  1  'x, y, z'
loop_
 _atom_site_type_symbol
 _atom_site_label
 _atom_site_symmetry_multiplicity
 _atom_site_fract_x
 _atom_site_fract_y
 _atom_site_fract_z
 _atom_site_occupancy
  K  K0  1  0.42733873  0.23246431  0.99102496  1
  K  K1  1  0.92733873  0.26753569  0.50897504  1
  K  K2  1  0.57266127  0.73246431  0.50897504  1
  K  K3  1  0.07266127  0.76753569  0.99102496  1
  K  K4  1  0.57266127  0.76753569  0.00897504  1
  K  K5  1  0.07266127  0.73246431  0.49102496  1
  K  K6  1  0.42733873  0.26753569  0.49102496  1
  K  K7  1  0.92733873  0.23246431  0.00897504  1
  K  K8  1  0.25000000  0.50000000  0.21625271  1
  K  K9  1  0.75000000  0.00000000  0.28374729  1
  K  K10  1  0.75000000  0.50000000  0.78374729  1
  K  K11  1  0.25000000  0.00000000  0.71625271  1
  P  P12  1  0.00993031  0.50996443  0.65253318  1
  P  P13  1  0.50993031  0.99003557  0.84746682  1
  P  P14  1  0.99006969  0.00996443  0.84746682  1
  P  P15  1  0.49006969  0.49003557  0.65253318  1
  P  P16  1  0.99006969  0.49003557  0.34746682  1
  P  P17  1  0.49006969  0.00996443  0.15253318  1
  P  P18  1  0.00993031  0.99003557  0.15253318  1
  P  P19  1  0.50993031  0.50996443  0.34746682  1
  P  P20  1  0.18646178  0.41758217  0.62266982  1
  P  P21  1  0.68646178  0.08241783  0.87733018  1
  P  P22  1  0.81353822  0.91758217  0.87733018  1
  P  P23  1  0.31353822  0.58241783  0.62266982  1
  P  P24  1  0.25000000  0.00000000  0.47471513  1
  P  P25  1  0.75000000  0.50000000  0.02528487  1
  P  P26  1  0.75000000  0.00000000  0.52528487  1
  P  P27  1  0.25000000  0.50000000  0.97471513  1
  P  P28  1  0.74489950  0.32182110  0.23863360  1
  P  P29  1  0.24489950  0.17817890  0.26136640  1
  P  P30  1  0.25510050  0.82182110  0.26136640  1
  P  P31  1  0.75510050  0.67817890  0.23863360  1
  P  P32  1  0.25510050  0.67817890  0.76136640  1
  P  P33  1  0.75510050  0.82182110  0.73863360  1
  P  P34  1  0.74489950  0.17817890  0.73863360  1
  P  P35  1  0.24489950  0.32182110  0.76136640  1
  P  P36  1  0.93362223  0.41127980  0.21060406  1
  P  P37  1  0.43362223  0.08872020  0.28939594  1
  P  P38  1  0.06637777  0.91127980  0.28939594  1
  P  P39  1  0.56637777  0.58872020  0.21060406  1
  P  P40  1  0.06637777  0.58872020  0.78939594  1
  P  P41  1  0.56637777  0.91127980  0.71060406  1
  P  P42  1  0.93362223  0.08872020  0.71060406  1
  P  P43  1  0.43362223  0.41127980  0.78939594  1
  P  P44  1  0.62145139  0.41827498  0.12925534  1
  P  P45  1  0.12145139  0.08172502  0.37074466  1
  P  P46  1  0.37854861  0.91827498  0.37074466  1
  P  P47  1  0.87854861  0.58172502  0.12925534  1
  P  P48  1  0.37854861  0.58172502  0.87074466  1
  P  P49  1  0.87854861  0.91827498  0.62925534  1
  P  P50  1  0.62145139  0.08172502  0.62925534  1
  P  P51  1  0.12145139  0.41827498  0.87074466  1
  P  P52  1  0.68646178  0.41758217  0.37733018  1
  P  P53  1  0.18646178  0.08241783  0.12266982  1
  P  P54  1  0.31353822  0.91758217  0.12266982  1
  P  P55  1  0.81353822  0.58241783  0.37733018  1
