# generated using pymatgen
data_NaSe2
_symmetry_space_group_name_H-M   'P 1'
_cell_length_a   9.43549015
_cell_length_b   9.43548998
_cell_length_c   9.43548941
_cell_angle_alpha   101.08664555
_cell_angle_beta   113.81929891
_cell_angle_gamma   113.81929052
_symmetry_Int_Tables_number   1
_chemical_formula_structural   NaSe2
_chemical_formula_sum   'Na8 Se16'
_cell_volume   636.48516915
_cell_formula_units_Z   8
loop_
 _symmetry_equiv_pos_site_id
 _symmetry_equiv_pos_as_xyz
  1  'x, y, z'
loop_
 _atom_site_type_symbol
 _atom_site_label
 _atom_site_symmetry_multiplicity
 _atom_site_fract_x
 _atom_site_fract_y
 _atom_site_fract_z
 _atom_site_occupancy
  Na  Na0  1  0.51053766  0.87500000  0.88553766  1
  Na  Na1  1  0.98946234  0.11446234  0.62500000  1
  Na  Na2  1  0.01053766  0.63553766  0.12500000  1
  Na  Na3  1  0.48946234  0.37500000  0.36446234  1
  Na  Na4  1  0.50000000  0.95272269  0.45272269  1
  Na  Na5  1  0.50000000  0.54727731  0.04727831  1
  Na  Na6  1  0.00000000  0.79727731  0.79727731  1
  Na  Na7  1  -0.00000000  0.20272169  0.20272169  1
  Se  Se8  1  0.26986914  0.53726989  0.55197529  1
  Se  Se9  1  0.98529461  0.44802471  0.71789385  1
  Se  Se10  1  0.01470539  0.73259825  0.46273011  1
  Se  Se11  1  0.48529461  0.46789385  0.69802471  1
  Se  Se12  1  0.51470539  0.21273011  0.98259825  1
  Se  Se13  1  0.73013086  0.28210615  0.26740175  1
  Se  Se14  1  0.76986914  0.30197529  0.78726989  1
  Se  Se15  1  0.23013086  0.01740175  0.53210615  1
  Se  Se16  1  0.20590288  0.03036134  0.27437931  1
  Se  Se17  1  0.79409712  0.06847642  0.82445646  1
  Se  Se18  1  0.70590288  0.02437931  0.28036134  1
  Se  Se19  1  0.24401997  0.17554354  0.96963866  1
  Se  Se20  1  0.75598003  0.72562069  0.93152358  1
  Se  Se21  1  0.74401997  0.71963866  0.42554354  1
  Se  Se22  1  0.25598003  0.68152358  0.97562069  1
  Se  Se23  1  0.29409712  0.57445646  0.31847642  1
