# generated using pymatgen
data_Rb2S5
_symmetry_space_group_name_H-M   'P 1'
_cell_length_a   6.59739156
_cell_length_b   6.81587051
_cell_length_c   18.66638364
_cell_angle_alpha   90.00000000
_cell_angle_beta   90.00000000
_cell_angle_gamma   90.00000000
_symmetry_Int_Tables_number   1
_chemical_formula_structural   Rb2S5
_chemical_formula_sum   'Rb8 S20'
_cell_volume   839.37064925
_cell_formula_units_Z   4
loop_
 _symmetry_equiv_pos_site_id
 _symmetry_equiv_pos_as_xyz
  1  'x, y, z'
loop_
 _atom_site_type_symbol
 _atom_site_label
 _atom_site_symmetry_multiplicity
 _atom_site_fract_x
 _atom_site_fract_y
 _atom_site_fract_z
 _atom_site_occupancy
  Rb  Rb0  1  0.41748414  0.70993685  0.32442375  1
  Rb  Rb1  1  0.91748414  0.79006315  0.67557625  1
  Rb  Rb2  1  0.58251586  0.20993685  0.17557625  1
  Rb  Rb3  1  0.08251586  0.29006315  0.82442375  1
  Rb  Rb4  1  0.87829332  0.57391309  0.00790404  1
  Rb  Rb5  1  0.37829332  0.92608691  0.99209596  1
  Rb  Rb6  1  0.12170668  0.07391309  0.49209596  1
  Rb  Rb7  1  0.62170668  0.42608691  0.50790404  1
  S  S8  1  0.54318423  0.70643327  0.14994328  1
  S  S9  1  0.04318423  0.79356673  0.85005672  1
  S  S10  1  0.45681577  0.20643327  0.35005672  1
  S  S11  1  0.95681577  0.29356673  0.64994328  1
  S  S12  1  0.24688967  0.62257756  0.13901305  1
  S  S13  1  0.74688967  0.87742244  0.86098695  1
  S  S14  1  0.75311033  0.12257756  0.36098695  1
  S  S15  1  0.25311033  0.37742244  0.63901305  1
  S  S16  1  0.59117733  0.92317526  0.54001783  1
  S  S17  1  0.09117733  0.57682474  0.45998217  1
  S  S18  1  0.40882267  0.42317526  0.95998217  1
  S  S19  1  0.90882267  0.07682474  0.04001783  1
  S  S20  1  0.43100013  0.91203383  0.63365447  1
  S  S21  1  0.93100013  0.58796617  0.36634553  1
  S  S22  1  0.56899987  0.41203383  0.86634553  1
  S  S23  1  0.06899987  0.08796617  0.13365447  1
  S  S24  1  0.44337662  0.17583533  0.68869768  1
  S  S25  1  0.94337662  0.32416467  0.31130232  1
  S  S26  1  0.55662338  0.67583533  0.81130232  1
  S  S27  1  0.05662338  0.82416467  0.18869768  1
