# generated using pymatgen
data_Cs2S5
_symmetry_space_group_name_H-M   'P 1'
_cell_length_a   6.88181348
_cell_length_b   7.27034598
_cell_length_c   18.57177016
_cell_angle_alpha   90.00000000
_cell_angle_beta   90.00000000
_cell_angle_gamma   90.00000000
_symmetry_Int_Tables_number   1
_chemical_formula_structural   Cs2S5
_chemical_formula_sum   'Cs8 S20'
_cell_volume   929.20444019
_cell_formula_units_Z   4
loop_
 _symmetry_equiv_pos_site_id
 _symmetry_equiv_pos_as_xyz
  1  'x, y, z'
loop_
 _atom_site_type_symbol
 _atom_site_label
 _atom_site_symmetry_multiplicity
 _atom_site_fract_x
 _atom_site_fract_y
 _atom_site_fract_z
 _atom_site_occupancy
  Cs  Cs0  1  0.11318986  0.57767630  0.01738187  1
  Cs  Cs1  1  0.61318986  0.92232370  0.98261813  1
  Cs  Cs2  1  0.88681014  0.07767630  0.48261813  1
  Cs  Cs3  1  0.38681014  0.42232370  0.51738187  1
  Cs  Cs4  1  0.57540200  0.75671686  0.33662851  1
  Cs  Cs5  1  0.07540200  0.74328314  0.66337149  1
  Cs  Cs6  1  0.42459800  0.25671686  0.16337149  1
  Cs  Cs7  1  0.92459800  0.24328314  0.83662851  1
  S  S8  1  0.08948443  0.07554471  0.02725538  1
  S  S9  1  0.58948443  0.42445529  0.97274462  1
  S  S10  1  0.91051557  0.57554471  0.47274462  1
  S  S11  1  0.41051557  0.92445529  0.52725538  1
  S  S12  1  0.46583966  0.76362885  0.15402095  1
  S  S13  1  0.96583966  0.73637115  0.84597905  1
  S  S14  1  0.53416034  0.26362885  0.34597905  1
  S  S15  1  0.03416034  0.23637115  0.65402095  1
  S  S16  1  0.93084603  0.12018763  0.11831134  1
  S  S17  1  0.43084603  0.37981237  0.88168866  1
  S  S18  1  0.06915397  0.62018763  0.38168866  1
  S  S19  1  0.56915397  0.87981237  0.61831134  1
  S  S20  1  0.93343552  0.89612923  0.18778284  1
  S  S21  1  0.43343552  0.60387077  0.81221716  1
  S  S22  1  0.06656348  0.39612923  0.31221716  1
  S  S23  1  0.56656448  0.10387077  0.68778284  1
  S  S24  1  0.75124773  0.68985638  0.14902447  1
  S  S25  1  0.25124773  0.81014362  0.85097553  1
  S  S26  1  0.24875227  0.18985638  0.35097553  1
  S  S27  1  0.74875227  0.31014362  0.64902447  1
