# generated using pymatgen
data_P4Os
_symmetry_space_group_name_H-M   'P 1'
_cell_length_a   4.73011426
_cell_length_b   7.17006516
_cell_length_c   7.55730820
_cell_angle_alpha   111.23267111
_cell_angle_beta   90.36169491
_cell_angle_gamma   100.43006430
_symmetry_Int_Tables_number   1
_chemical_formula_structural   P4Os
_chemical_formula_sum   'P12 Os3'
_cell_volume   234.23808985
_cell_formula_units_Z   3
loop_
 _symmetry_equiv_pos_site_id
 _symmetry_equiv_pos_as_xyz
  1  'x, y, z'
loop_
 _atom_site_type_symbol
 _atom_site_label
 _atom_site_symmetry_multiplicity
 _atom_site_fract_x
 _atom_site_fract_y
 _atom_site_fract_z
 _atom_site_occupancy
  P  P0  1  0.82047937  0.83849468  0.21517967  1
  P  P1  1  0.17952063  0.16150532  0.78482033  1
  P  P2  1  0.72696669  0.57289074  0.54931187  1
  P  P3  1  0.27303331  0.42710926  0.45068813  1
  P  P4  1  0.79362790  0.29621019  0.12329930  1
  P  P5  1  0.20637210  0.70378981  0.87670070  1
  P  P6  1  0.40121234  0.63349967  0.10033079  1
  P  P7  1  0.59878766  0.36650033  0.89966921  1
  P  P8  1  0.34146637  0.91416246  0.56130569  1
  P  P9  1  0.65853363  0.08583754  0.43869431  1
  P  P10  1  0.60812968  0.82955512  0.76863466  1
  P  P11  1  0.39187032  0.17044488  0.23136534  1
  Os  Os12  1  0.00000000  -0.00000000  -0.00000000  1
  Os  Os13  1  0.05924840  0.62824578  0.32838528  1
  Os  Os14  1  0.94075160  0.37175422  0.67161472  1
