# generated using pymatgen
data_Cs2Se
_symmetry_space_group_name_H-M   'P 1'
_cell_length_a   5.97789268
_cell_length_b   5.97789288
_cell_length_c   5.97011603
_cell_angle_alpha   59.95689410
_cell_angle_beta   59.95691334
_cell_angle_gamma   59.99999302
_symmetry_Int_Tables_number   1
_chemical_formula_structural   Cs2Se
_chemical_formula_sum   'Cs2 Se1'
_cell_volume   150.75814548
_cell_formula_units_Z   1
loop_
 _symmetry_equiv_pos_site_id
 _symmetry_equiv_pos_as_xyz
  1  'x, y, z'
loop_
 _atom_site_type_symbol
 _atom_site_label
 _atom_site_symmetry_multiplicity
 _atom_site_fract_x
 _atom_site_fract_y
 _atom_site_fract_z
 _atom_site_occupancy
  Cs  Cs0  1  0.25055078  0.25055078  0.24834965  1
  Cs  Cs1  1  0.74944922  0.74944922  0.75165035  1
  Se  Se2  1  -0.00000000  -0.00000000  -0.00000000  1
