# generated using pymatgen
data_Ca3(SiP2)2
_symmetry_space_group_name_H-M   'P 1'
_cell_length_a   17.26389198
_cell_length_b   6.93381266
_cell_length_c   7.09579263
_cell_angle_alpha   68.18350292
_cell_angle_beta   90.00000000
_cell_angle_gamma   90.00000000
_symmetry_Int_Tables_number   1
_chemical_formula_structural   Ca3(SiP2)2
_chemical_formula_sum   'Ca12 Si8 P16'
_cell_volume   788.56404637
_cell_formula_units_Z   4
loop_
 _symmetry_equiv_pos_site_id
 _symmetry_equiv_pos_as_xyz
  1  'x, y, z'
loop_
 _atom_site_type_symbol
 _atom_site_label
 _atom_site_symmetry_multiplicity
 _atom_site_fract_x
 _atom_site_fract_y
 _atom_site_fract_z
 _atom_site_occupancy
  Ca  Ca0  1  0.31616001  0.48785174  0.21605991  1
  Ca  Ca1  1  0.81616001  0.01214826  0.78394009  1
  Ca  Ca2  1  0.68383999  0.51214826  0.78394009  1
  Ca  Ca3  1  0.18383999  0.98785174  0.21605991  1
  Ca  Ca4  1  0.06234849  0.48791460  0.25625915  1
  Ca  Ca5  1  0.56234849  0.01208540  0.74374085  1
  Ca  Ca6  1  0.93765151  0.51208540  0.74374085  1
  Ca  Ca7  1  0.43765151  0.98791460  0.25625915  1
  Ca  Ca8  1  0.55817177  0.49539376  0.26130337  1
  Ca  Ca9  1  0.05817177  0.00460624  0.73869663  1
  Ca  Ca10  1  0.44182823  0.50460624  0.73869663  1
  Ca  Ca11  1  0.94182823  0.99539376  0.26130337  1
  Si  Si12  1  0.74155647  0.08555025  0.31622428  1
  Si  Si13  1  0.24155647  0.41444975  0.68377572  1
  Si  Si14  1  0.25844353  0.91444975  0.68377572  1
  Si  Si15  1  0.75844353  0.58555025  0.31622428  1
  Si  Si16  1  0.87160736  0.47171012  0.21213064  1
  Si  Si17  1  0.37160736  0.02828988  0.78786936  1
  Si  Si18  1  0.12839264  0.52828988  0.78786936  1
  Si  Si19  1  0.62839264  0.97171012  0.21213064  1
  P  P20  1  0.69952606  0.27684358  0.49872134  1
  P  P21  1  0.19952606  0.22315642  0.50127866  1
  P  P22  1  0.30047394  0.72315642  0.50127866  1
  P  P23  1  0.80047394  0.77684358  0.49872134  1
  P  P24  1  0.81397931  0.27879951  0.04626332  1
  P  P25  1  0.31397931  0.22120049  0.95373668  1
  P  P26  1  0.18602069  0.72120049  0.95373668  1
  P  P27  1  0.68602069  0.77879951  0.04626332  1
  P  P28  1  0.93154608  0.26130609  0.49240943  1
  P  P29  1  0.43154608  0.23869391  0.50759057  1
  P  P30  1  0.06845392  0.73869391  0.50759057  1
  P  P31  1  0.56845392  0.76130609  0.49240943  1
  P  P32  1  0.56156052  0.24329592  0.01067177  1
  P  P33  1  0.06156052  0.25670408  0.98932823  1
  P  P34  1  0.43843948  0.75670408  0.98932823  1
  P  P35  1  0.93843948  0.74329592  0.01067177  1
