# generated using pymatgen
data_NO3
_symmetry_space_group_name_H-M   'P 1'
_cell_length_a   6.16402372
_cell_length_b   8.99442035
_cell_length_c   16.26301533
_cell_angle_alpha   90.00000000
_cell_angle_beta   90.08236592
_cell_angle_gamma   90.00000000
_symmetry_Int_Tables_number   1
_chemical_formula_structural   NO3
_chemical_formula_sum   'N16 O48'
_cell_volume   901.65024257
_cell_formula_units_Z   16
loop_
 _symmetry_equiv_pos_site_id
 _symmetry_equiv_pos_as_xyz
  1  'x, y, z'
loop_
 _atom_site_type_symbol
 _atom_site_label
 _atom_site_symmetry_multiplicity
 _atom_site_fract_x
 _atom_site_fract_y
 _atom_site_fract_z
 _atom_site_occupancy
  N  N0  1  0.97944785  0.75543875  0.48748907  1
  N  N1  1  0.02055215  0.25543875  0.01251093  1
  N  N2  1  0.02055215  0.24456125  0.51251093  1
  N  N3  1  0.97944785  0.74456125  0.98748907  1
  N  N4  1  0.52290149  0.58962117  0.36366559  1
  N  N5  1  0.47709851  0.08962117  0.13633441  1
  N  N6  1  0.47709851  0.41037883  0.63633441  1
  N  N7  1  0.52290149  0.91037883  0.86366559  1
  N  N8  1  0.02625178  0.91856299  0.25828283  1
  N  N9  1  0.97374822  0.41856299  0.24171717  1
  N  N10  1  0.97374822  0.08143701  0.74171717  1
  N  N11  1  0.02625178  0.58143701  0.75828283  1
  N  N12  1  0.52719136  0.57256929  0.11146443  1
  N  N13  1  0.47280864  0.07256929  0.38853557  1
  N  N14  1  0.47280864  0.42743071  0.88853557  1
  N  N15  1  0.52719136  0.92743071  0.61146443  1
  O  O16  1  0.10591089  0.76354474  0.54641903  1
  O  O17  1  0.89408911  0.26354474  0.95358097  1
  O  O18  1  0.89408911  0.23645526  0.45358097  1
  O  O19  1  0.10591089  0.73645526  0.04641903  1
  O  O20  1  0.89649514  0.63505701  0.46738132  1
  O  O21  1  0.10350486  0.13505701  0.03261868  1
  O  O22  1  0.10350486  0.36494299  0.53261868  1
  O  O23  1  0.89649514  0.86494299  0.96738132  1
  O  O24  1  0.93262491  0.86926187  0.44754469  1
  O  O25  1  0.06737509  0.36926187  0.05245531  1
  O  O26  1  0.06737509  0.13073813  0.55245531  1
  O  O27  1  0.93262491  0.63073813  0.94754469  1
  O  O28  1  0.39068553  0.60383098  0.42024199  1
  O  O29  1  0.60931347  0.10383098  0.07975801  1
  O  O30  1  0.60931347  0.39616902  0.57975801  1
  O  O31  1  0.39068553  0.89616902  0.92024199  1
  O  O32  1  0.60223412  0.46663874  0.34675888  1
  O  O33  1  0.39776588  0.96663874  0.15324112  1
  O  O34  1  0.39776588  0.53336126  0.65324112  1
  O  O35  1  0.60223412  0.03336126  0.84675888  1
  O  O36  1  0.57975322  0.70022698  0.32278676  1
  O  O37  1  0.42024678  0.20022698  0.17721324  1
  O  O38  1  0.42024678  0.29977302  0.67721324  1
  O  O39  1  0.57975322  0.79977302  0.82278676  1
  O  O40  1  0.89103177  0.92039821  0.20212118  1
  O  O41  1  0.10896823  0.42039821  0.29787882  1
  O  O42  1  0.10896823  0.07960179  0.79787882  1
  O  O43  1  0.89103177  0.57960179  0.70212118  1
  O  O44  1  0.11150436  0.79891074  0.27971219  1
  O  O45  1  0.88849564  0.29891074  0.22028781  1
  O  O46  1  0.88849564  0.20108926  0.72028781  1
  O  O47  1  0.11150436  0.70108926  0.77971219  1
  O  O48  1  0.08137502  0.03443533  0.29416640  1
  O  O49  1  0.91862498  0.53443533  0.20583360  1
  O  O50  1  0.91862498  0.96556467  0.70583360  1
  O  O51  1  0.08137502  0.46556467  0.79416640  1
  O  O52  1  0.39523666  0.56908536  0.16877264  1
  O  O53  1  0.60476334  0.06908536  0.33122736  1
  O  O54  1  0.60476334  0.43091464  0.83122736  1
  O  O55  1  0.39523666  0.93091464  0.66877264  1
  O  O56  1  0.58180965  0.45426524  0.07734069  1
  O  O57  1  0.41819035  0.95426524  0.42265931  1
  O  O58  1  0.41819035  0.54573476  0.92265931  1
  O  O59  1  0.58180965  0.04573476  0.57734069  1
  O  O60  1  0.60657910  0.69144218  0.08768436  1
  O  O61  1  0.39342090  0.19144218  0.41231564  1
  O  O62  1  0.39342090  0.30855782  0.91231564  1
  O  O63  1  0.60657910  0.80855782  0.58768436  1
