# generated using pymatgen
data_As2O5
_symmetry_space_group_name_H-M   'P 1'
_cell_length_a   4.64018029
_cell_length_b   8.54050011
_cell_length_c   8.67466276
_cell_angle_alpha   90.00000000
_cell_angle_beta   90.00000000
_cell_angle_gamma   90.00000000
_symmetry_Int_Tables_number   1
_chemical_formula_structural   As2O5
_chemical_formula_sum   'As8 O20'
_cell_volume   343.77220327
_cell_formula_units_Z   4
loop_
 _symmetry_equiv_pos_site_id
 _symmetry_equiv_pos_as_xyz
  1  'x, y, z'
loop_
 _atom_site_type_symbol
 _atom_site_label
 _atom_site_symmetry_multiplicity
 _atom_site_fract_x
 _atom_site_fract_y
 _atom_site_fract_z
 _atom_site_occupancy
  As  As0  1  0.88164347  0.03298468  0.71563474  1
  As  As1  1  0.38164347  0.46701532  0.28436526  1
  As  As2  1  0.11835653  0.53298468  0.78436526  1
  As  As3  1  0.61835653  0.96701532  0.21563474  1
  As  As4  1  0.87678469  0.65264858  0.09830706  1
  As  As5  1  0.37678469  0.84735142  0.90169294  1
  As  As6  1  0.12321531  0.15264858  0.40169294  1
  As  As7  1  0.62321531  0.34735142  0.59830706  1
  O  O8  1  0.05174837  0.50549421  0.97635866  1
  O  O9  1  0.55174837  0.99450579  0.02364134  1
  O  O10  1  0.94825163  0.00549421  0.52364134  1
  O  O11  1  0.44825163  0.49450579  0.47635866  1
  O  O12  1  0.20548840  0.72487309  0.75330884  1
  O  O13  1  0.70548840  0.77512691  0.24669116  1
  O  O14  1  0.79451160  0.22487309  0.74669116  1
  O  O15  1  0.29451160  0.27512691  0.25330884  1
  O  O16  1  0.89630739  0.31401138  0.45460758  1
  O  O17  1  0.39630739  0.18598862  0.54539242  1
  O  O18  1  0.10369261  0.81401138  0.04539242  1
  O  O19  1  0.60369261  0.68598862  0.95460758  1
  O  O20  1  0.12893961  0.60582491  0.25770626  1
  O  O21  1  0.62893961  0.89417509  0.74229374  1
  O  O22  1  0.87106039  0.10582491  0.24229374  1
  O  O23  1  0.37106039  0.39417509  0.75770626  1
  O  O24  1  0.66835388  0.48121395  0.16553569  1
  O  O25  1  0.16835388  0.01878605  0.83446431  1
  O  O26  1  0.33164612  0.98121395  0.33446431  1
  O  O27  1  0.83164612  0.51878605  0.66553569  1
