# generated using pymatgen
data_MoI2
_symmetry_space_group_name_H-M   'P 1'
_cell_length_a   10.43751738
_cell_length_b   10.43751738
_cell_length_c   12.78316470
_cell_angle_alpha   90.00000000
_cell_angle_beta   90.00000000
_cell_angle_gamma   104.49193756
_symmetry_Int_Tables_number   1
_chemical_formula_structural   MoI2
_chemical_formula_sum   'Mo12 I24'
_cell_volume   1348.31137802
_cell_formula_units_Z   12
loop_
 _symmetry_equiv_pos_site_id
 _symmetry_equiv_pos_as_xyz
  1  'x, y, z'
loop_
 _atom_site_type_symbol
 _atom_site_label
 _atom_site_symmetry_multiplicity
 _atom_site_fract_x
 _atom_site_fract_y
 _atom_site_fract_z
 _atom_site_occupancy
  Mo  Mo0  1  0.63171320  0.63171320  0.43377572  1
  Mo  Mo1  1  0.36828680  0.36828680  0.56622428  1
  Mo  Mo2  1  0.86828680  0.86828680  0.93377572  1
  Mo  Mo3  1  0.13171320  0.13171320  0.06622428  1
  Mo  Mo4  1  0.56635827  0.56635827  0.63163901  1
  Mo  Mo5  1  0.43364173  0.43364173  0.36836099  1
  Mo  Mo6  1  0.93364173  0.93364173  0.13163901  1
  Mo  Mo7  1  0.06635827  0.06635827  0.86836099  1
  Mo  Mo8  1  0.38597924  0.61402076  0.50000000  1
  Mo  Mo9  1  0.11402076  0.88597924  0.00000000  1
  Mo  Mo10  1  0.61402076  0.38597924  0.50000000  1
  Mo  Mo11  1  0.88597924  0.11402076  0.00000000  1
  I  I12  1  0.58865113  0.82753968  0.56905107  1
  I  I13  1  0.17246032  0.41134887  0.43094893  1
  I  I14  1  0.91134887  0.67246032  0.06905107  1
  I  I15  1  0.32753968  0.08865113  0.93094893  1
  I  I16  1  0.41134887  0.17246032  0.43094893  1
  I  I17  1  0.82753968  0.58865113  0.56905107  1
  I  I18  1  0.08865113  0.32753968  0.93094893  1
  I  I19  1  0.67246032  0.91134887  0.06905107  1
  I  I20  1  0.45003688  0.68854222  0.29200434  1
  I  I21  1  0.31145878  0.54996312  0.70799566  1
  I  I22  1  0.04996312  0.81145778  0.79200434  1
  I  I23  1  0.18854222  0.95003688  0.20799566  1
  I  I24  1  0.54996312  0.31145878  0.70799566  1
  I  I25  1  0.68854222  0.45003688  0.29200434  1
  I  I26  1  0.95003688  0.18854222  0.20799566  1
  I  I27  1  0.81145778  0.04996312  0.79200434  1
  I  I28  1  0.65625863  0.65625863  0.84405007  1
  I  I29  1  0.34374237  0.34374237  0.15594993  1
  I  I30  1  0.84374137  0.84374137  0.34405007  1
  I  I31  1  0.15625863  0.15625863  0.65594993  1
  I  I32  1  0.21364378  0.78635622  0.50000000  1
  I  I33  1  0.28635622  0.71364378  0.00000000  1
  I  I34  1  0.78635622  0.21364378  0.50000000  1
  I  I35  1  0.71364378  0.28635622  0.00000000  1
