# generated using pymatgen
data_ICl3
_symmetry_space_group_name_H-M   'P 1'
_cell_length_a   5.56724511
_cell_length_b   5.85028728
_cell_length_c   8.47404122
_cell_angle_alpha   72.13978368
_cell_angle_beta   79.04954318
_cell_angle_gamma   81.81022058
_symmetry_Int_Tables_number   1
_chemical_formula_structural   ICl3
_chemical_formula_sum   'I2 Cl6'
_cell_volume   256.86613119
_cell_formula_units_Z   2
loop_
 _symmetry_equiv_pos_site_id
 _symmetry_equiv_pos_as_xyz
  1  'x, y, z'
loop_
 _atom_site_type_symbol
 _atom_site_label
 _atom_site_symmetry_multiplicity
 _atom_site_fract_x
 _atom_site_fract_y
 _atom_site_fract_z
 _atom_site_occupancy
  I  I0  1  0.81870499  -0.00075763  0.81620683  1
  I  I1  1  0.18129501  0.00075763  0.18379317  1
  Cl  Cl2  1  0.45153862  0.26917844  0.20350049  1
  Cl  Cl3  1  0.54846138  0.73082156  0.79649951  1
  Cl  Cl4  1  0.87221115  0.71657988  0.13466504  1
  Cl  Cl5  1  0.12778885  0.28342012  0.86533496  1
  Cl  Cl6  1  0.21130882  0.73298426  0.45466657  1
  Cl  Cl7  1  0.78869118  0.26701574  0.54533343  1
