# generated using pymatgen
data_Cs2S3
_symmetry_space_group_name_H-M   'P 1'
_cell_length_a   6.74983851
_cell_length_b   6.74983851
_cell_length_c   8.21402104
_cell_angle_alpha   90.00000000
_cell_angle_beta   90.00000000
_cell_angle_gamma   109.90637093
_symmetry_Int_Tables_number   1
_chemical_formula_structural   Cs2S3
_chemical_formula_sum   'Cs4 S6'
_cell_volume   351.87308114
_cell_formula_units_Z   2
loop_
 _symmetry_equiv_pos_site_id
 _symmetry_equiv_pos_as_xyz
  1  'x, y, z'
loop_
 _atom_site_type_symbol
 _atom_site_label
 _atom_site_symmetry_multiplicity
 _atom_site_fract_x
 _atom_site_fract_y
 _atom_site_fract_z
 _atom_site_occupancy
  Cs  Cs0  1  0.10282726  0.89717274  0.53018758  1
  Cs  Cs1  1  0.89717274  0.10282726  0.03018758  1
  Cs  Cs2  1  0.57003123  0.42996877  0.80968158  1
  Cs  Cs3  1  0.42996877  0.57003123  0.30968158  1
  S  S4  1  0.61775897  0.94794923  0.64641169  1
  S  S5  1  0.05205077  0.38224103  0.64641169  1
  S  S6  1  0.38224103  0.05205077  0.14641169  1
  S  S7  1  0.94794923  0.61775897  0.14641169  1
  S  S8  1  0.79412801  0.20587199  0.50780546  1
  S  S9  1  0.20587199  0.79412801  0.00780546  1
