# generated using pymatgen
data_Ge3Os2
_symmetry_space_group_name_H-M   'P 1'
_cell_length_a   5.77654176
_cell_length_b   9.26105943
_cell_length_c   11.54499700
_cell_angle_alpha   90.00000000
_cell_angle_beta   90.00000000
_cell_angle_gamma   90.00000000
_symmetry_Int_Tables_number   1
_chemical_formula_structural   Ge3Os2
_chemical_formula_sum   'Ge24 Os16'
_cell_volume   617.62151005
_cell_formula_units_Z   8
loop_
 _symmetry_equiv_pos_site_id
 _symmetry_equiv_pos_as_xyz
  1  'x, y, z'
loop_
 _atom_site_type_symbol
 _atom_site_label
 _atom_site_symmetry_multiplicity
 _atom_site_fract_x
 _atom_site_fract_y
 _atom_site_fract_z
 _atom_site_occupancy
  Ge  Ge0  1  0.59887087  0.10402393  0.63222720  1
  Ge  Ge1  1  0.09887087  0.39597607  0.86777280  1
  Ge  Ge2  1  0.90112913  0.10402393  0.36777280  1
  Ge  Ge3  1  0.40112913  0.39597607  0.13222720  1
  Ge  Ge4  1  0.40112913  0.89597607  0.36777280  1
  Ge  Ge5  1  0.90112913  0.60402393  0.13222720  1
  Ge  Ge6  1  0.09887087  0.89597607  0.63222720  1
  Ge  Ge7  1  0.59887087  0.60402393  0.86777280  1
  Ge  Ge8  1  0.90939069  0.06584892  0.82171888  1
  Ge  Ge9  1  0.40939069  0.43415108  0.67828112  1
  Ge  Ge10  1  0.59060931  0.06584892  0.17828112  1
  Ge  Ge11  1  0.09060931  0.43415108  0.32171888  1
  Ge  Ge12  1  0.09060931  0.93415108  0.17828112  1
  Ge  Ge13  1  0.59060931  0.56584892  0.32171888  1
  Ge  Ge14  1  0.40939069  0.93415108  0.82171888  1
  Ge  Ge15  1  0.90939069  0.56584892  0.67828112  1
  Ge  Ge16  1  0.54341017  0.71230485  0.57371709  1
  Ge  Ge17  1  0.04341017  0.78769515  0.92628291  1
  Ge  Ge18  1  0.95658983  0.71230485  0.42628291  1
  Ge  Ge19  1  0.45658983  0.78769515  0.07371709  1
  Ge  Ge20  1  0.45658983  0.28769515  0.42628291  1
  Ge  Ge21  1  0.95658983  0.21230485  0.07371709  1
  Ge  Ge22  1  0.04341017  0.28769515  0.57371709  1
  Ge  Ge23  1  0.54341017  0.21230485  0.92628291  1
  Os  Os24  1  0.75000000  0.92445729  0.50000000  1
  Os  Os25  1  0.25000000  0.57554271  -0.00000000  1
  Os  Os26  1  0.25000000  0.07554271  0.50000000  1
  Os  Os27  1  0.75000000  0.42445729  -0.00000000  1
  Os  Os28  1  0.75000000  0.46094645  0.50000000  1
  Os  Os29  1  0.25000000  0.03905355  -0.00000000  1
  Os  Os30  1  0.25000000  0.53905355  0.50000000  1
  Os  Os31  1  0.75000000  0.96094645  -0.00000000  1
  Os  Os32  1  0.75907806  0.31310918  0.74518120  1
  Os  Os33  1  0.25907806  0.18689082  0.75481880  1
  Os  Os34  1  0.74092194  0.31310918  0.25481880  1
  Os  Os35  1  0.24092194  0.18689082  0.24518120  1
  Os  Os36  1  0.24092194  0.68689082  0.25481880  1
  Os  Os37  1  0.74092194  0.81310918  0.24518120  1
  Os  Os38  1  0.25907806  0.68689082  0.74518120  1
  Os  Os39  1  0.75907806  0.81310918  0.75481880  1
