# generated using pymatgen
data_KS
_symmetry_space_group_name_H-M   'P 1'
_cell_length_a   8.51254391
_cell_length_b   8.51254349
_cell_length_c   5.84614012
_cell_angle_alpha   90.00000000
_cell_angle_beta   90.00000000
_cell_angle_gamma   119.99999367
_symmetry_Int_Tables_number   1
_chemical_formula_structural   KS
_chemical_formula_sum   'K6 S6'
_cell_volume   366.87539707
_cell_formula_units_Z   6
loop_
 _symmetry_equiv_pos_site_id
 _symmetry_equiv_pos_as_xyz
  1  'x, y, z'
loop_
 _atom_site_type_symbol
 _atom_site_label
 _atom_site_symmetry_multiplicity
 _atom_site_fract_x
 _atom_site_fract_y
 _atom_site_fract_z
 _atom_site_occupancy
  K  K0  1  -0.00000000  0.64213592  0.50000000  1
  K  K1  1  0.35786408  0.35786408  0.50000000  1
  K  K2  1  0.64213592  -0.00000000  0.50000000  1
  K  K3  1  -0.00000000  0.30714325  0.00000000  1
  K  K4  1  0.69285675  0.69285675  0.00000000  1
  K  K5  1  0.30714325  -0.00000000  0.00000000  1
  S  S6  1  0.66666700  0.33333300  0.18223921  1
  S  S7  1  0.66666700  0.33333300  0.81776079  1
  S  S8  1  0.33333300  0.66666700  0.81776079  1
  S  S9  1  0.33333300  0.66666700  0.18223921  1
  S  S10  1  0.00000000  -0.00000000  0.68097611  1
  S  S11  1  0.00000000  -0.00000000  0.31902389  1
