# generated using pymatgen
data_MnO
_symmetry_space_group_name_H-M   'P 1'
_cell_length_a   3.15460529
_cell_length_b   4.39705891
_cell_length_c   6.19318731
_cell_angle_alpha   90.00000076
_cell_angle_beta   90.00101439
_cell_angle_gamma   89.99994390
_symmetry_Int_Tables_number   1
_chemical_formula_structural   MnO
_chemical_formula_sum   'Mn4 O4'
_cell_volume   85.90561004
_cell_formula_units_Z   4
loop_
 _symmetry_equiv_pos_site_id
 _symmetry_equiv_pos_as_xyz
  1  'x, y, z'
loop_
 _atom_site_type_symbol
 _atom_site_label
 _atom_site_symmetry_multiplicity
 _atom_site_fract_x
 _atom_site_fract_y
 _atom_site_fract_z
 _atom_site_occupancy
  Mn  Mn0  1  0.50000342  0.49999947  0.73913940  1
  Mn  Mn1  1  0.00000151  0.00000038  0.01085157  1
  Mn  Mn2  1  0.49997282  0.49999947  0.23913476  1
  Mn  Mn3  1  0.00000868  0.00000006  0.51078809  1
  O  O4  1  0.00000238  0.49999986  0.49314103  1
  O  O5  1  0.50000386  0.00000055  0.75692311  1
  O  O6  1  0.00000306  0.49999951  0.99310319  1
  O  O7  1  0.50000427  0.00000070  0.25691984  1
