# generated using pymatgen
data_RbP15
_symmetry_space_group_name_H-M   'P 1'
_cell_length_a   7.42145704
_cell_length_b   9.38227128
_cell_length_c   12.52253676
_cell_angle_alpha   88.77310881
_cell_angle_beta   78.28950229
_cell_angle_gamma   69.56961273
_symmetry_Int_Tables_number   1
_chemical_formula_structural   RbP15
_chemical_formula_sum   'Rb2 P30'
_cell_volume   798.92829856
_cell_formula_units_Z   2
loop_
 _symmetry_equiv_pos_site_id
 _symmetry_equiv_pos_as_xyz
  1  'x, y, z'
loop_
 _atom_site_type_symbol
 _atom_site_label
 _atom_site_symmetry_multiplicity
 _atom_site_fract_x
 _atom_site_fract_y
 _atom_site_fract_z
 _atom_site_occupancy
  Rb  Rb0  1  0.22092058  0.78428976  0.99757526  1
  Rb  Rb1  1  0.77907942  0.21571024  0.00242474  1
  P  P2  1  0.01494585  0.56885348  0.18762582  1
  P  P3  1  0.98505415  0.43114652  0.81237418  1
  P  P4  1  0.29107782  0.12125034  0.81232531  1
  P  P5  1  0.70892218  0.87874966  0.18767469  1
  P  P6  1  0.11660072  0.23639959  0.69302389  1
  P  P7  1  0.88339928  0.76360041  0.30697611  1
  P  P8  1  0.33744911  0.30986075  0.56716289  1
  P  P9  1  0.66255089  0.69013925  0.43283711  1
  P  P10  1  0.20168590  0.41013590  0.28360037  1
  P  P11  1  0.79831410  0.58986410  0.71639963  1
  P  P12  1  0.01259808  0.65987330  0.59241779  1
  P  P13  1  0.98740192  0.34012670  0.40758221  1
  P  P14  1  0.52237622  0.73570902  0.19151499  1
  P  P15  1  0.47762378  0.26429098  0.80848501  1
  P  P16  1  0.31076486  0.01534910  0.40801358  1
  P  P17  1  0.68923514  0.98465090  0.59198642  1
  P  P18  1  0.29957662  0.53689322  0.63021796  1
  P  P19  1  0.70042338  0.46310678  0.36978204  1
  P  P20  1  0.03333753  0.10691931  0.34712785  1
  P  P21  1  0.96666247  0.89308069  0.65287215  1
  P  P22  1  0.75557466  0.49981836  0.19176795  1
  P  P23  1  0.24442534  0.50018164  0.80823205  1
  P  P24  1  0.60804522  0.22762153  0.63067251  1
  P  P25  1  0.39195478  0.77237847  0.36932749  1
  P  P26  1  0.52291431  0.08803204  0.28446644  1
  P  P27  1  0.47708569  0.91196796  0.71553356  1
  P  P28  1  0.12071240  0.10419873  0.17277743  1
  P  P29  1  0.87928760  0.89580127  0.82722257  1
  P  P30  1  0.33757769  0.20718100  0.16760006  1
  P  P31  1  0.66242231  0.79281900  0.83239994  1
