# generated using pymatgen
data_Mg3Sb2
_symmetry_space_group_name_H-M   'P 1'
_cell_length_a   11.52212202
_cell_length_b   11.52212202
_cell_length_c   11.52212202
_cell_angle_alpha   109.47122063
_cell_angle_beta   109.47122063
_cell_angle_gamma   109.47122063
_symmetry_Int_Tables_number   1
_chemical_formula_structural   Mg3Sb2
_chemical_formula_sum   'Mg24 Sb16'
_cell_volume   1177.53959595
_cell_formula_units_Z   8
loop_
 _symmetry_equiv_pos_site_id
 _symmetry_equiv_pos_as_xyz
  1  'x, y, z'
loop_
 _atom_site_type_symbol
 _atom_site_label
 _atom_site_symmetry_multiplicity
 _atom_site_fract_x
 _atom_site_fract_y
 _atom_site_fract_z
 _atom_site_occupancy
  Mg  Mg0  1  0.99447688  0.73907676  0.97917287  1
  Mg  Mg1  1  0.74009611  0.76092324  0.25540012  1
  Mg  Mg2  1  0.50552312  0.98469599  0.24459988  1
  Mg  Mg3  1  0.75990389  0.51530401  0.52082713  1
  Mg  Mg4  1  0.73907676  0.97917287  0.99447688  1
  Mg  Mg5  1  0.76092324  0.25540012  0.74009611  1
  Mg  Mg6  1  0.98469599  0.24459988  0.50552312  1
  Mg  Mg7  1  0.51530401  0.52082713  0.75990389  1
  Mg  Mg8  1  0.97917287  0.99447688  0.73907676  1
  Mg  Mg9  1  0.25540012  0.74009611  0.76092324  1
  Mg  Mg10  1  0.24459988  0.50552312  0.98469599  1
  Mg  Mg11  1  0.52082713  0.75990389  0.51530401  1
  Mg  Mg12  1  0.00552312  0.26092324  0.02082713  1
  Mg  Mg13  1  0.25990389  0.23907676  0.74459988  1
  Mg  Mg14  1  0.49447688  0.01530401  0.75540012  1
  Mg  Mg15  1  0.24009611  0.48469599  0.47917287  1
  Mg  Mg16  1  0.26092324  0.02082713  0.00552312  1
  Mg  Mg17  1  0.23907676  0.74459988  0.25990389  1
  Mg  Mg18  1  0.01530401  0.75540012  0.49447688  1
  Mg  Mg19  1  0.48469599  0.47917287  0.24009611  1
  Mg  Mg20  1  0.02082713  0.00552312  0.26092324  1
  Mg  Mg21  1  0.74459988  0.25990389  0.23907676  1
  Mg  Mg22  1  0.75540012  0.49447688  0.01530401  1
  Mg  Mg23  1  0.47917287  0.24009611  0.48469599  1
  Sb  Sb24  1  0.00000000  0.50000000  0.00000000  1
  Sb  Sb25  1  0.00000000  0.00000000  0.50000000  1
  Sb  Sb26  1  0.50000000  0.00000000  0.00000000  1
  Sb  Sb27  1  0.50000000  0.50000000  0.50000000  1
  Sb  Sb28  1  0.26450592  0.75000000  0.51450592  1
  Sb  Sb29  1  0.23549408  0.25000000  0.98549408  1
  Sb  Sb30  1  0.75000000  0.51450592  0.26450592  1
  Sb  Sb31  1  0.25000000  0.98549408  0.23549408  1
  Sb  Sb32  1  0.51450592  0.26450592  0.75000000  1
  Sb  Sb33  1  0.98549408  0.23549408  0.25000000  1
  Sb  Sb34  1  0.73549408  0.25000000  0.48549408  1
  Sb  Sb35  1  0.76450592  0.75000000  0.01450592  1
  Sb  Sb36  1  0.25000000  0.48549408  0.73549408  1
  Sb  Sb37  1  0.75000000  0.01450592  0.76450592  1
  Sb  Sb38  1  0.48549408  0.73549408  0.25000000  1
  Sb  Sb39  1  0.01450592  0.76450592  0.75000000  1
