# generated using pymatgen
data_Si3Os2
_symmetry_space_group_name_H-M   'P 1'
_cell_length_a   5.59784075
_cell_length_b   8.96562575
_cell_length_c   11.19513560
_cell_angle_alpha   90.00000000
_cell_angle_beta   90.00000000
_cell_angle_gamma   90.00000000
_symmetry_Int_Tables_number   1
_chemical_formula_structural   Si3Os2
_chemical_formula_sum   'Si24 Os16'
_cell_volume   561.86309072
_cell_formula_units_Z   8
loop_
 _symmetry_equiv_pos_site_id
 _symmetry_equiv_pos_as_xyz
  1  'x, y, z'
loop_
 _atom_site_type_symbol
 _atom_site_label
 _atom_site_symmetry_multiplicity
 _atom_site_fract_x
 _atom_site_fract_y
 _atom_site_fract_z
 _atom_site_occupancy
  Si  Si0  1  0.60304926  0.10491919  0.63122991  1
  Si  Si1  1  0.10304926  0.39508081  0.86877009  1
  Si  Si2  1  0.89695074  0.10491919  0.36877009  1
  Si  Si3  1  0.39695074  0.39508081  0.13122991  1
  Si  Si4  1  0.39695074  0.89508081  0.36877009  1
  Si  Si5  1  0.89695074  0.60491919  0.13122991  1
  Si  Si6  1  0.10304926  0.89508081  0.63122991  1
  Si  Si7  1  0.60304926  0.60491919  0.86877009  1
  Si  Si8  1  0.91064973  0.06325765  0.81905027  1
  Si  Si9  1  0.41064973  0.43674235  0.68094973  1
  Si  Si10  1  0.58935027  0.06325765  0.18094973  1
  Si  Si11  1  0.08935027  0.43674235  0.31905027  1
  Si  Si12  1  0.08935027  0.93674235  0.18094973  1
  Si  Si13  1  0.58935027  0.56325765  0.31905027  1
  Si  Si14  1  0.41064973  0.93674235  0.81905027  1
  Si  Si15  1  0.91064973  0.56325765  0.68094973  1
  Si  Si16  1  0.55815835  0.70431836  0.57451279  1
  Si  Si17  1  0.05815835  0.79568164  0.92548721  1
  Si  Si18  1  0.94184165  0.70431836  0.42548721  1
  Si  Si19  1  0.44184165  0.79568164  0.07451279  1
  Si  Si20  1  0.44184165  0.29568164  0.42548721  1
  Si  Si21  1  0.94184165  0.20431836  0.07451279  1
  Si  Si22  1  0.05815835  0.29568164  0.57451279  1
  Si  Si23  1  0.55815835  0.20431836  0.92548721  1
  Os  Os24  1  0.75000000  0.92299654  0.50000000  1
  Os  Os25  1  0.25000000  0.57700346  -0.00000000  1
  Os  Os26  1  0.25000000  0.07700346  0.50000000  1
  Os  Os27  1  0.75000000  0.42299654  -0.00000000  1
  Os  Os28  1  0.75000000  0.46291332  0.50000000  1
  Os  Os29  1  0.25000000  0.03708668  -0.00000000  1
  Os  Os30  1  0.25000000  0.53708668  0.50000000  1
  Os  Os31  1  0.75000000  0.96291332  -0.00000000  1
  Os  Os32  1  0.76257629  0.31277051  0.74475926  1
  Os  Os33  1  0.26257629  0.18722949  0.75524074  1
  Os  Os34  1  0.73742371  0.31277051  0.25524074  1
  Os  Os35  1  0.23742371  0.18722949  0.24475926  1
  Os  Os36  1  0.23742371  0.68722949  0.25524074  1
  Os  Os37  1  0.73742371  0.81277051  0.24475926  1
  Os  Os38  1  0.26257629  0.68722949  0.74475926  1
  Os  Os39  1  0.76257629  0.81277051  0.75524074  1
