# generated using pymatgen
data_RhI3
_symmetry_space_group_name_H-M   'P 1'
_cell_length_a   6.86621056
_cell_length_b   6.86621056
_cell_length_c   7.10845960
_cell_angle_alpha   98.47692929
_cell_angle_beta   98.47692929
_cell_angle_gamma   119.99910335
_symmetry_Int_Tables_number   1
_chemical_formula_structural   RhI3
_chemical_formula_sum   'Rh2 I6'
_cell_volume   277.33151054
_cell_formula_units_Z   2
loop_
 _symmetry_equiv_pos_site_id
 _symmetry_equiv_pos_as_xyz
  1  'x, y, z'
loop_
 _atom_site_type_symbol
 _atom_site_label
 _atom_site_symmetry_multiplicity
 _atom_site_fract_x
 _atom_site_fract_y
 _atom_site_fract_z
 _atom_site_occupancy
  Rh  Rh0  1  0.83336288  0.16663712  0.00000000  1
  Rh  Rh1  1  0.16663712  0.83336288  -0.00000000  1
  I  I2  1  0.43261750  0.07586484  0.77800227  1
  I  I3  1  0.56738250  0.92413516  0.22199773  1
  I  I4  1  0.92413516  0.56738250  0.22199773  1
  I  I5  1  0.07586484  0.43261750  0.77800227  1
  I  I6  1  0.78823615  0.78823615  0.77715024  1
  I  I7  1  0.21176385  0.21176385  0.22284976  1
