# generated using pymatgen
data_RbGe
_symmetry_space_group_name_H-M   'P 1'
_cell_length_a   13.21270815
_cell_length_b   13.21270815
_cell_length_c   13.21270815
_cell_angle_alpha   90.00000000
_cell_angle_beta   90.00000000
_cell_angle_gamma   90.00000000
_symmetry_Int_Tables_number   1
_chemical_formula_structural   RbGe
_chemical_formula_sum   'Rb32 Ge32'
_cell_volume   2306.61720150
_cell_formula_units_Z   32
loop_
 _symmetry_equiv_pos_site_id
 _symmetry_equiv_pos_as_xyz
  1  'x, y, z'
loop_
 _atom_site_type_symbol
 _atom_site_label
 _atom_site_symmetry_multiplicity
 _atom_site_fract_x
 _atom_site_fract_y
 _atom_site_fract_z
 _atom_site_occupancy
  Rb  Rb0  1  0.33369036  0.33369036  0.33369036  1
  Rb  Rb1  1  0.16630964  0.83369036  0.16630964  1
  Rb  Rb2  1  0.16630964  0.16630964  0.83369036  1
  Rb  Rb3  1  0.83369036  0.16630964  0.16630964  1
  Rb  Rb4  1  0.66630964  0.66630964  0.33369036  1
  Rb  Rb5  1  0.33369036  0.66630964  0.66630964  1
  Rb  Rb6  1  0.66630964  0.33369036  0.66630964  1
  Rb  Rb7  1  0.83369036  0.83369036  0.83369036  1
  Rb  Rb8  1  0.33690308  0.13930973  0.06534645  1
  Rb  Rb9  1  0.16309692  0.56534645  0.36069027  1
  Rb  Rb10  1  0.16309692  0.43465355  0.63930973  1
  Rb  Rb11  1  0.43465355  0.36069027  0.83690308  1
  Rb  Rb12  1  0.56534645  0.36069027  0.16309692  1
  Rb  Rb13  1  0.63930973  0.16309692  0.43465355  1
  Rb  Rb14  1  0.36069027  0.83690308  0.43465355  1
  Rb  Rb15  1  0.06534645  0.33690308  0.13930973  1
  Rb  Rb16  1  0.13930973  0.06534645  0.33690308  1
  Rb  Rb17  1  0.86069027  0.93465355  0.33690308  1
  Rb  Rb18  1  0.06534645  0.66309692  0.86069027  1
  Rb  Rb19  1  0.86069027  0.06534645  0.66309692  1
  Rb  Rb20  1  0.93465355  0.66309692  0.13930973  1
  Rb  Rb21  1  0.93465355  0.33690308  0.86069027  1
  Rb  Rb22  1  0.13930973  0.93465355  0.66309692  1
  Rb  Rb23  1  0.33690308  0.86069027  0.93465355  1
  Rb  Rb24  1  0.66309692  0.13930973  0.93465355  1
  Rb  Rb25  1  0.66309692  0.86069027  0.06534645  1
  Rb  Rb26  1  0.36069027  0.16309692  0.56534645  1
  Rb  Rb27  1  0.63930973  0.83690308  0.56534645  1
  Rb  Rb28  1  0.43465355  0.63930973  0.16309692  1
  Rb  Rb29  1  0.56534645  0.63930973  0.83690308  1
  Rb  Rb30  1  0.83690308  0.43465355  0.36069027  1
  Rb  Rb31  1  0.83690308  0.56534645  0.63930973  1
  Ge  Ge32  1  0.06847233  0.06847233  0.06847233  1
  Ge  Ge33  1  0.43152767  0.56847233  0.43152767  1
  Ge  Ge34  1  0.43152767  0.43152767  0.56847233  1
  Ge  Ge35  1  0.56847233  0.43152767  0.43152767  1
  Ge  Ge36  1  0.93152767  0.93152767  0.06847233  1
  Ge  Ge37  1  0.06847233  0.93152767  0.93152767  1
  Ge  Ge38  1  0.93152767  0.06847233  0.93152767  1
  Ge  Ge39  1  0.56847233  0.56847233  0.56847233  1
  Ge  Ge40  1  0.06273005  0.31745112  0.42518889  1
  Ge  Ge41  1  0.43726995  0.92518889  0.18254888  1
  Ge  Ge42  1  0.43726995  0.07481111  0.81745112  1
  Ge  Ge43  1  0.07481111  0.18254888  0.56273005  1
  Ge  Ge44  1  0.92518889  0.18254888  0.43726995  1
  Ge  Ge45  1  0.81745112  0.43726995  0.07481111  1
  Ge  Ge46  1  0.18254888  0.56273005  0.07481111  1
  Ge  Ge47  1  0.42518889  0.06273005  0.31745112  1
  Ge  Ge48  1  0.31745112  0.42518889  0.06273005  1
  Ge  Ge49  1  0.68254888  0.57481111  0.06273005  1
  Ge  Ge50  1  0.42518889  0.93726995  0.68254888  1
  Ge  Ge51  1  0.68254888  0.42518889  0.93726995  1
  Ge  Ge52  1  0.57481111  0.93726995  0.31745112  1
  Ge  Ge53  1  0.57481111  0.06273005  0.68254888  1
  Ge  Ge54  1  0.31745112  0.57481111  0.93726995  1
  Ge  Ge55  1  0.06273005  0.68254888  0.57481111  1
  Ge  Ge56  1  0.93726995  0.31745112  0.57481111  1
  Ge  Ge57  1  0.93726995  0.68254888  0.42518889  1
  Ge  Ge58  1  0.18254888  0.43726995  0.92518889  1
  Ge  Ge59  1  0.81745112  0.56273005  0.92518889  1
  Ge  Ge60  1  0.07481111  0.81745112  0.43726995  1
  Ge  Ge61  1  0.92518889  0.81745112  0.56273005  1
  Ge  Ge62  1  0.56273005  0.07481111  0.18254888  1
  Ge  Ge63  1  0.56273005  0.92518889  0.81745112  1
