# generated using pymatgen
data_NpF6
_symmetry_space_group_name_H-M   'P 1'
_cell_length_a   5.06756493
_cell_length_b   8.71831562
_cell_length_c   9.61061282
_cell_angle_alpha   90.00000000
_cell_angle_beta   90.00000000
_cell_angle_gamma   90.00000000
_symmetry_Int_Tables_number   1
_chemical_formula_structural   NpF6
_chemical_formula_sum   'Np4 F24'
_cell_volume   424.60293373
_cell_formula_units_Z   4
loop_
 _symmetry_equiv_pos_site_id
 _symmetry_equiv_pos_as_xyz
  1  'x, y, z'
loop_
 _atom_site_type_symbol
 _atom_site_label
 _atom_site_symmetry_multiplicity
 _atom_site_fract_x
 _atom_site_fract_y
 _atom_site_fract_z
 _atom_site_occupancy
  Np  Np0  1  0.57914180  0.75000000  0.87093599  1
  Np  Np1  1  0.42085820  0.25000000  0.12906401  1
  Np  Np2  1  0.07914180  0.25000000  0.62906401  1
  Np  Np3  1  0.92085820  0.75000000  0.37093599  1
  F  F4  1  0.25785613  0.75000000  0.99051757  1
  F  F5  1  0.74214387  0.25000000  0.00948243  1
  F  F6  1  0.75785613  0.25000000  0.50948243  1
  F  F7  1  0.24214387  0.75000000  0.49051757  1
  F  F8  1  0.90061504  0.75000000  0.75029554  1
  F  F9  1  0.09938496  0.25000000  0.24970446  1
  F  F10  1  0.40061504  0.25000000  0.74970446  1
  F  F11  1  0.59938496  0.75000000  0.25029554  1
  F  F12  1  0.73979709  0.91089814  0.99132054  1
  F  F13  1  0.26020291  0.08910186  0.00867946  1
  F  F14  1  0.23979709  0.08910186  0.50867946  1
  F  F15  1  0.26020291  0.41089814  0.00867946  1
  F  F16  1  0.76020291  0.91089814  0.49132054  1
  F  F17  1  0.73979709  0.58910186  0.99132054  1
  F  F18  1  0.76020291  0.58910186  0.49132054  1
  F  F19  1  0.23979709  0.41089814  0.50867946  1
  F  F20  1  0.41843751  0.91129018  0.75143773  1
  F  F21  1  0.58156249  0.08870982  0.24856227  1
  F  F22  1  0.91843751  0.08870982  0.74856227  1
  F  F23  1  0.58156249  0.41129018  0.24856227  1
  F  F24  1  0.08156249  0.91129018  0.25143773  1
  F  F25  1  0.41843751  0.58870982  0.75143773  1
  F  F26  1  0.08156249  0.58870982  0.25143773  1
  F  F27  1  0.91843751  0.41129018  0.74856227  1
