# generated using pymatgen
data_KP15
_symmetry_space_group_name_H-M   'P 1'
_cell_length_a   7.32543802
_cell_length_b   9.31075324
_cell_length_c   12.24877629
_cell_angle_alpha   89.31548682
_cell_angle_beta   78.44835862
_cell_angle_gamma   70.29175086
_symmetry_Int_Tables_number   1
_chemical_formula_structural   KP15
_chemical_formula_sum   'K2 P30'
_cell_volume   769.16285457
_cell_formula_units_Z   2
loop_
 _symmetry_equiv_pos_site_id
 _symmetry_equiv_pos_as_xyz
  1  'x, y, z'
loop_
 _atom_site_type_symbol
 _atom_site_label
 _atom_site_symmetry_multiplicity
 _atom_site_fract_x
 _atom_site_fract_y
 _atom_site_fract_z
 _atom_site_occupancy
  K  K0  1  0.21837033  0.78569537  0.99756867  1
  K  K1  1  0.78162967  0.21430463  0.00243133  1
  P  P2  1  0.01859698  0.56780553  0.17950777  1
  P  P3  1  0.98140302  0.43219447  0.82049223  1
  P  P4  1  0.28747941  0.12259789  0.81968488  1
  P  P5  1  0.71252059  0.87740211  0.18031512  1
  P  P6  1  0.11277484  0.23677891  0.69778032  1
  P  P7  1  0.88722516  0.76322109  0.30221968  1
  P  P8  1  0.33674954  0.31055570  0.56934617  1
  P  P9  1  0.66325046  0.68944430  0.43065383  1
  P  P10  1  0.20572826  0.41017357  0.27770129  1
  P  P11  1  0.79427174  0.58982643  0.72229871  1
  P  P12  1  0.01150045  0.66009811  0.59590045  1
  P  P13  1  0.98849955  0.33990189  0.40409955  1
  P  P14  1  0.52201517  0.73295019  0.18379759  1
  P  P15  1  0.47798483  0.26704981  0.81620241  1
  P  P16  1  0.31093141  0.01473294  0.40521094  1
  P  P17  1  0.68906859  0.98526706  0.59478906  1
  P  P18  1  0.30042893  0.53880327  0.63449016  1
  P  P19  1  0.69957107  0.46119673  0.36550984  1
  P  P20  1  0.03256274  0.10543481  0.34212812  1
  P  P21  1  0.96743726  0.89456519  0.65787188  1
  P  P22  1  0.75545061  0.49711092  0.18364624  1
  P  P23  1  0.24454939  0.50288908  0.81635376  1
  P  P24  1  0.60917482  0.22939685  0.63447371  1
  P  P25  1  0.39082518  0.77060315  0.36552629  1
  P  P26  1  0.52665604  0.08752136  0.27955878  1
  P  P27  1  0.47334396  0.91247864  0.72044022  1
  P  P28  1  0.12162579  0.10124616  0.16385360  1
  P  P29  1  0.87837421  0.89875384  0.83614640  1
  P  P30  1  0.34238547  0.20537781  0.15941375  1
  P  P31  1  0.65761453  0.79462219  0.84058625  1
