# generated using pymatgen
data_Na4Sr2SiP4
_symmetry_space_group_name_H-M   'P 1'
_cell_length_a   9.25332770
_cell_length_b   9.25332770
_cell_length_c   7.28583341
_cell_angle_alpha   89.72982940
_cell_angle_beta   89.72982940
_cell_angle_gamma   119.97793056
_symmetry_Int_Tables_number   1
_chemical_formula_structural   Na4Sr2SiP4
_chemical_formula_sum   'Na8 Sr4 Si2 P8'
_cell_volume   540.35974894
_cell_formula_units_Z   2
loop_
 _symmetry_equiv_pos_site_id
 _symmetry_equiv_pos_as_xyz
  1  'x, y, z'
loop_
 _atom_site_type_symbol
 _atom_site_label
 _atom_site_symmetry_multiplicity
 _atom_site_fract_x
 _atom_site_fract_y
 _atom_site_fract_z
 _atom_site_occupancy
  Na  Na0  1  0.05481114  0.52703411  0.61111666  1
  Na  Na1  1  0.52703411  0.05481114  0.11111666  1
  Na  Na2  1  0.27739272  0.13524490  0.80830566  1
  Na  Na3  1  0.86654888  0.71378094  0.77779007  1
  Na  Na4  1  0.86157486  0.15134095  0.78757411  1
  Na  Na5  1  0.71378094  0.86654888  0.27779007  1
  Na  Na6  1  0.13524490  0.27739272  0.30830566  1
  Na  Na7  1  0.15134095  0.86157486  0.28757411  1
  Sr  Sr8  1  0.47054876  0.94895269  0.61397570  1
  Sr  Sr9  1  0.46834155  0.52127335  0.61515715  1
  Sr  Sr10  1  0.94895269  0.47054876  0.11397570  1
  Sr  Sr11  1  0.52127335  0.46834155  0.11515715  1
  Si  Si12  1  0.67236870  0.33733745  0.49949977  1
  Si  Si13  1  0.33733745  0.67236870  0.99949977  1
  P  P14  1  0.66241597  0.33626730  0.81558370  1
  P  P15  1  0.33626730  0.66241597  0.31558370  1
  P  P16  1  0.60860499  0.80274746  0.89618127  1
  P  P17  1  0.19580440  0.39327462  0.90803077  1
  P  P18  1  0.19502966  0.79913260  0.90280213  1
  P  P19  1  0.39327462  0.19580440  0.40803077  1
  P  P20  1  0.80274746  0.60860499  0.39618127  1
  P  P21  1  0.79913260  0.19502966  0.40280213  1
