# generated using pymatgen
data_LaSiP3
_symmetry_space_group_name_H-M   'P 1'
_cell_length_a   5.78309152
_cell_length_b   5.98363527
_cell_length_c   25.53921043
_cell_angle_alpha   90.00000000
_cell_angle_beta   90.00000000
_cell_angle_gamma   90.00000000
_symmetry_Int_Tables_number   1
_chemical_formula_structural   LaSiP3
_chemical_formula_sum   'La8 Si8 P24'
_cell_volume   883.75654912
_cell_formula_units_Z   8
loop_
 _symmetry_equiv_pos_site_id
 _symmetry_equiv_pos_as_xyz
  1  'x, y, z'
loop_
 _atom_site_type_symbol
 _atom_site_label
 _atom_site_symmetry_multiplicity
 _atom_site_fract_x
 _atom_site_fract_y
 _atom_site_fract_z
 _atom_site_occupancy
  La  La0  1  0.75027679  0.97813942  0.09015756  1
  La  La1  1  0.25027679  0.02186058  0.90984244  1
  La  La2  1  0.25027679  0.52186058  0.59015756  1
  La  La3  1  0.75027679  0.47813942  0.40984244  1
  La  La4  1  0.24924496  0.47753219  0.09966433  1
  La  La5  1  0.74924496  0.52246781  0.90033567  1
  La  La6  1  0.74924496  0.02246781  0.59966433  1
  La  La7  1  0.24924496  0.97753219  0.40033567  1
  Si  Si8  1  0.32991980  0.05760366  0.20618896  1
  Si  Si9  1  0.82991980  0.94239634  0.79381104  1
  Si  Si10  1  0.82991980  0.44239634  0.70618896  1
  Si  Si11  1  0.32991980  0.55760366  0.29381104  1
  Si  Si12  1  0.82700633  0.38817680  0.20957088  1
  Si  Si13  1  0.32700633  0.61182320  0.79042912  1
  Si  Si14  1  0.32700633  0.11182320  0.70957088  1
  Si  Si15  1  0.82700633  0.88817680  0.29042912  1
  P  P16  1  0.74767659  0.48636585  0.12896192  1
  P  P17  1  0.24767659  0.51363415  0.87103808  1
  P  P18  1  0.24767659  0.01363415  0.62896192  1
  P  P19  1  0.74767659  0.98636585  0.37103808  1
  P  P20  1  0.24836172  0.97470326  0.12476430  1
  P  P21  1  0.74836172  0.02529674  0.87523570  1
  P  P22  1  0.74836172  0.52529674  0.62476430  1
  P  P23  1  0.24836172  0.47470326  0.37523570  1
  P  P24  1  0.44892582  0.67942956  0.00225809  1
  P  P25  1  0.94892582  0.32057044  0.99774191  1
  P  P26  1  0.94892582  0.82057044  0.50225809  1
  P  P27  1  0.44892582  0.17942956  0.49774191  1
  P  P28  1  0.55572361  0.31934398  0.99786679  1
  P  P29  1  0.05572361  0.68065602  0.00213321  1
  P  P30  1  0.05572361  0.18065602  0.49786679  1
  P  P31  1  0.55572361  0.81934398  0.50213321  1
  P  P32  1  0.21474082  0.40997163  0.21754093  1
  P  P33  1  0.71474082  0.59002837  0.78245907  1
  P  P34  1  0.71474082  0.09002837  0.71754093  1
  P  P35  1  0.21474082  0.90997163  0.28245907  1
  P  P36  1  0.71712357  0.03155516  0.21250056  1
  P  P37  1  0.21712357  0.96844484  0.78749944  1
  P  P38  1  0.21712357  0.46844484  0.71250056  1
  P  P39  1  0.71712357  0.53155516  0.28749944  1
