# generated using pymatgen
data_KSi
_symmetry_space_group_name_H-M   'P 1'
_cell_length_a   12.62359893
_cell_length_b   12.62359893
_cell_length_c   12.62359893
_cell_angle_alpha   90.00000000
_cell_angle_beta   90.00000000
_cell_angle_gamma   90.00000000
_symmetry_Int_Tables_number   1
_chemical_formula_structural   KSi
_chemical_formula_sum   'K32 Si32'
_cell_volume   2011.63676270
_cell_formula_units_Z   32
loop_
 _symmetry_equiv_pos_site_id
 _symmetry_equiv_pos_as_xyz
  1  'x, y, z'
loop_
 _atom_site_type_symbol
 _atom_site_label
 _atom_site_symmetry_multiplicity
 _atom_site_fract_x
 _atom_site_fract_y
 _atom_site_fract_z
 _atom_site_occupancy
  K  K0  1  0.06592826  0.33672995  0.14062189  1
  K  K1  1  0.83672995  0.43407174  0.35937811  1
  K  K2  1  0.56592826  0.64062189  0.83672995  1
  K  K3  1  0.43407174  0.64062189  0.16327005  1
  K  K4  1  0.64062189  0.83672995  0.56592826  1
  K  K5  1  0.35937811  0.16327005  0.56592826  1
  K  K6  1  0.66327005  0.85937811  0.06592826  1
  K  K7  1  0.66327005  0.14062189  0.93407174  1
  K  K8  1  0.33672995  0.85937811  0.93407174  1
  K  K9  1  0.14062189  0.93407174  0.66327005  1
  K  K10  1  0.93407174  0.33672995  0.85937811  1
  K  K11  1  0.93407174  0.66327005  0.14062189  1
  K  K12  1  0.85937811  0.06592826  0.66327005  1
  K  K13  1  0.06592826  0.66327005  0.85937811  1
  K  K14  1  0.85937811  0.93407174  0.33672995  1
  K  K15  1  0.14062189  0.06592826  0.33672995  1
  K  K16  1  0.83672995  0.56592826  0.64062189  1
  K  K17  1  0.35937811  0.83672995  0.43407174  1
  K  K18  1  0.64062189  0.16327005  0.43407174  1
  K  K19  1  0.56592826  0.35937811  0.16327005  1
  K  K20  1  0.43407174  0.35937811  0.83672995  1
  K  K21  1  0.16327005  0.43407174  0.64062189  1
  K  K22  1  0.16327005  0.56592826  0.35937811  1
  K  K23  1  0.33672995  0.14062189  0.06592826  1
  K  K24  1  0.83359541  0.83359541  0.83359541  1
  K  K25  1  0.66640459  0.33359541  0.66640459  1
  K  K26  1  0.33359541  0.66640459  0.66640459  1
  K  K27  1  0.66640459  0.66640459  0.33359541  1
  K  K28  1  0.83359541  0.16640459  0.16640459  1
  K  K29  1  0.16640459  0.16640459  0.83359541  1
  K  K30  1  0.16640459  0.83359541  0.16640459  1
  K  K31  1  0.33359541  0.33359541  0.33359541  1
  Si  Si32  1  0.56221772  0.92674776  0.81664342  1
  Si  Si33  1  0.56221772  0.07325224  0.18335658  1
  Si  Si34  1  0.92674776  0.81664342  0.56221772  1
  Si  Si35  1  0.07325224  0.81664342  0.43778228  1
  Si  Si36  1  0.81664342  0.56221772  0.92674776  1
  Si  Si37  1  0.18335658  0.43778228  0.92674776  1
  Si  Si38  1  0.93778228  0.68335658  0.42674776  1
  Si  Si39  1  0.93778228  0.31664342  0.57325224  1
  Si  Si40  1  0.06221772  0.68335658  0.57325224  1
  Si  Si41  1  0.31664342  0.57325224  0.93778228  1
  Si  Si42  1  0.57325224  0.06221772  0.68335658  1
  Si  Si43  1  0.57325224  0.93778228  0.31664342  1
  Si  Si44  1  0.68335658  0.42674776  0.93778228  1
  Si  Si45  1  0.42674776  0.93778228  0.68335658  1
  Si  Si46  1  0.68335658  0.57325224  0.06221772  1
  Si  Si47  1  0.06751806  0.06751806  0.06751806  1
  Si  Si48  1  0.42674776  0.06221772  0.31664342  1
  Si  Si49  1  0.18335658  0.56221772  0.07325224  1
  Si  Si50  1  0.81664342  0.43778228  0.07325224  1
  Si  Si51  1  0.92674776  0.18335658  0.43778228  1
  Si  Si52  1  0.07325224  0.18335658  0.56221772  1
  Si  Si53  1  0.43778228  0.07325224  0.81664342  1
  Si  Si54  1  0.43778228  0.92674776  0.18335658  1
  Si  Si55  1  0.06221772  0.31664342  0.42674776  1
  Si  Si56  1  0.56751806  0.56751806  0.56751806  1
  Si  Si57  1  0.93248194  0.06751806  0.93248194  1
  Si  Si58  1  0.06751806  0.93248194  0.93248194  1
  Si  Si59  1  0.93248194  0.93248194  0.06751806  1
  Si  Si60  1  0.56751806  0.43248194  0.43248194  1
  Si  Si61  1  0.43248194  0.43248194  0.56751806  1
  Si  Si62  1  0.43248194  0.56751806  0.43248194  1
  Si  Si63  1  0.31664342  0.42674776  0.06221772  1
