# generated using pymatgen
data_Ba3(SiAs2)2
_symmetry_space_group_name_H-M   'P 1'
_cell_length_a   7.79736261
_cell_length_b   8.52483089
_cell_length_c   10.04998830
_cell_angle_alpha   107.83200529
_cell_angle_beta   105.03519189
_cell_angle_gamma   107.69498826
_symmetry_Int_Tables_number   1
_chemical_formula_structural   Ba3(SiAs2)2
_chemical_formula_sum   'Ba6 Si4 As8'
_cell_volume   558.22041902
_cell_formula_units_Z   2
loop_
 _symmetry_equiv_pos_site_id
 _symmetry_equiv_pos_as_xyz
  1  'x, y, z'
loop_
 _atom_site_type_symbol
 _atom_site_label
 _atom_site_symmetry_multiplicity
 _atom_site_fract_x
 _atom_site_fract_y
 _atom_site_fract_z
 _atom_site_occupancy
  Ba  Ba0  1  0.69295663  0.94298217  0.88594529  1
  Ba  Ba1  1  0.30704461  0.05702083  0.11405652  1
  Ba  Ba2  1  0.81537206  0.56535617  0.13059888  1
  Ba  Ba3  1  0.18462890  0.43464662  0.86940373  1
  Ba  Ba4  1  0.05978374  0.80979117  0.61953573  1
  Ba  Ba5  1  0.94021729  0.19021314  0.38046722  1
  Si  Si6  1  0.62230256  0.46579880  0.63657225  1
  Si  Si7  1  0.51425503  0.17073676  0.63646052  1
  Si  Si8  1  0.37769120  0.53419848  0.36342444  1
  Si  Si9  1  0.48574508  0.82926720  0.36354128  1
  As  As10  1  0.64750377  0.44498479  0.39716300  1
  As  As11  1  0.24951445  0.95205761  0.39708427  1
  As  As12  1  0.44346831  0.18857583  0.85328501  1
  As  As13  1  0.91001346  0.66502642  0.85340850  1
  As  As14  1  0.55653292  0.81142913  0.14671781  1
  As  As15  1  0.08998658  0.33494730  0.14657804  1
  As  As16  1  0.75048637  0.04794669  0.60291819  1
  As  As17  1  0.35249702  0.55502089  0.60283933  1
