# generated using pymatgen
data_Si7Tc4
_symmetry_space_group_name_H-M   'P 1'
_cell_length_a   5.74212480
_cell_length_b   5.74212480
_cell_length_c   18.03504706
_cell_angle_alpha   90.00000000
_cell_angle_beta   90.00000000
_cell_angle_gamma   90.00000000
_symmetry_Int_Tables_number   1
_chemical_formula_structural   Si7Tc4
_chemical_formula_sum   'Si28 Tc16'
_cell_volume   594.65152150
_cell_formula_units_Z   4
loop_
 _symmetry_equiv_pos_site_id
 _symmetry_equiv_pos_as_xyz
  1  'x, y, z'
loop_
 _atom_site_type_symbol
 _atom_site_label
 _atom_site_symmetry_multiplicity
 _atom_site_fract_x
 _atom_site_fract_y
 _atom_site_fract_z
 _atom_site_occupancy
  Si  Si0  1  0.18996099  0.15145230  0.38441072  1
  Si  Si1  1  0.81003901  0.84854770  0.38441072  1
  Si  Si2  1  0.18996099  0.84854770  0.88441072  1
  Si  Si3  1  0.81003901  0.15145230  0.88441072  1
  Si  Si4  1  0.15145230  0.81003901  0.61558928  1
  Si  Si5  1  0.84854770  0.18996099  0.61558928  1
  Si  Si6  1  0.84854770  0.81003901  0.11558928  1
  Si  Si7  1  0.15145230  0.18996099  0.11558928  1
  Si  Si8  1  0.84634721  0.32988325  0.31611839  1
  Si  Si9  1  0.15365279  0.67011675  0.31611839  1
  Si  Si10  1  0.84634721  0.67011675  0.81611839  1
  Si  Si11  1  0.15365279  0.32988325  0.81611839  1
  Si  Si12  1  0.32988325  0.15365279  0.68388161  1
  Si  Si13  1  0.67011675  0.84634721  0.68388161  1
  Si  Si14  1  0.67011675  0.15365279  0.18388161  1
  Si  Si15  1  0.32988325  0.84634721  0.18388161  1
  Si  Si16  1  0.34079761  0.34079761  0.25000000  1
  Si  Si17  1  0.65920239  0.65920239  0.25000000  1
  Si  Si18  1  0.34079761  0.65920239  0.75000000  1
  Si  Si19  1  0.65920239  0.34079761  0.75000000  1
  Si  Si20  1  0.22511521  0.34805768  0.54086877  1
  Si  Si21  1  0.77488479  0.65194232  0.54086877  1
  Si  Si22  1  0.22511521  0.65194232  0.04086877  1
  Si  Si23  1  0.77488479  0.34805768  0.04086877  1
  Si  Si24  1  0.34805768  0.77488479  0.45913123  1
  Si  Si25  1  0.65194232  0.22511521  0.45913123  1
  Si  Si26  1  0.65194232  0.77488479  0.95913123  1
  Si  Si27  1  0.34805768  0.22511521  0.95913123  1
  Tc  Tc28  1  0.00000000  0.00000000  0.50000000  1
  Tc  Tc29  1  0.00000000  0.00000000  0.00000000  1
  Tc  Tc30  1  0.00000000  0.50000000  0.43527275  1
  Tc  Tc31  1  0.00000000  0.50000000  0.93527275  1
  Tc  Tc32  1  0.50000000  0.00000000  0.56472725  1
  Tc  Tc33  1  0.50000000  0.00000000  0.06472725  1
  Tc  Tc34  1  0.50000000  0.50000000  0.36935000  1
  Tc  Tc35  1  0.50000000  0.50000000  0.86935000  1
  Tc  Tc36  1  0.50000000  0.50000000  0.63065000  1
  Tc  Tc37  1  0.50000000  0.50000000  0.13065000  1
  Tc  Tc38  1  0.50000000  0.00000000  0.30760542  1
  Tc  Tc39  1  0.50000000  0.00000000  0.80760542  1
  Tc  Tc40  1  0.00000000  0.50000000  0.69239458  1
  Tc  Tc41  1  0.00000000  0.50000000  0.19239458  1
  Tc  Tc42  1  0.00000000  -0.00000000  0.25000000  1
  Tc  Tc43  1  0.00000000  0.00000000  0.75000000  1
