# generated using pymatgen
data_RbSi
_symmetry_space_group_name_H-M   'P 1'
_cell_length_a   13.09925557
_cell_length_b   13.09925557
_cell_length_c   13.09925557
_cell_angle_alpha   90.00000000
_cell_angle_beta   90.00000000
_cell_angle_gamma   90.00000000
_symmetry_Int_Tables_number   1
_chemical_formula_structural   RbSi
_chemical_formula_sum   'Rb32 Si32'
_cell_volume   2247.70776688
_cell_formula_units_Z   32
loop_
 _symmetry_equiv_pos_site_id
 _symmetry_equiv_pos_as_xyz
  1  'x, y, z'
loop_
 _atom_site_type_symbol
 _atom_site_label
 _atom_site_symmetry_multiplicity
 _atom_site_fract_x
 _atom_site_fract_y
 _atom_site_fract_z
 _atom_site_occupancy
  Rb  Rb0  1  0.06511920  0.33637415  0.14073226  1
  Rb  Rb1  1  0.83637515  0.43488080  0.35926774  1
  Rb  Rb2  1  0.56511920  0.64073226  0.83637515  1
  Rb  Rb3  1  0.43488080  0.64073226  0.16362485  1
  Rb  Rb4  1  0.64073226  0.83637515  0.56511920  1
  Rb  Rb5  1  0.35926774  0.16362485  0.56511920  1
  Rb  Rb6  1  0.66362485  0.85926774  0.06511920  1
  Rb  Rb7  1  0.66362485  0.14073226  0.93488080  1
  Rb  Rb8  1  0.33637415  0.85926774  0.93488080  1
  Rb  Rb9  1  0.14073226  0.93488080  0.66362485  1
  Rb  Rb10  1  0.93488080  0.33637415  0.85926774  1
  Rb  Rb11  1  0.93488080  0.66362485  0.14073226  1
  Rb  Rb12  1  0.85926774  0.06511920  0.66362485  1
  Rb  Rb13  1  0.06511920  0.66362485  0.85926774  1
  Rb  Rb14  1  0.85926774  0.93488080  0.33637415  1
  Rb  Rb15  1  0.14073226  0.06511920  0.33637415  1
  Rb  Rb16  1  0.83637515  0.56511920  0.64073226  1
  Rb  Rb17  1  0.35926774  0.83637515  0.43488080  1
  Rb  Rb18  1  0.64073226  0.16362485  0.43488080  1
  Rb  Rb19  1  0.56511920  0.35926774  0.16362485  1
  Rb  Rb20  1  0.43488080  0.35926774  0.83637515  1
  Rb  Rb21  1  0.16362485  0.43488080  0.64073226  1
  Rb  Rb22  1  0.16362485  0.56511920  0.35926774  1
  Rb  Rb23  1  0.33637415  0.14073226  0.06511920  1
  Rb  Rb24  1  0.83323416  0.83323416  0.83323416  1
  Rb  Rb25  1  0.66676584  0.33323416  0.66676584  1
  Rb  Rb26  1  0.33323416  0.66676584  0.66676584  1
  Rb  Rb27  1  0.66676584  0.66676584  0.33323416  1
  Rb  Rb28  1  0.83323416  0.16676584  0.16676584  1
  Rb  Rb29  1  0.16676584  0.16676584  0.83323416  1
  Rb  Rb30  1  0.16676584  0.83323416  0.16676584  1
  Rb  Rb31  1  0.33323416  0.33323416  0.33323416  1
  Si  Si32  1  0.56012640  0.92948374  0.81429945  1
  Si  Si33  1  0.56012640  0.07051626  0.18570055  1
  Si  Si34  1  0.92948374  0.81429945  0.56012640  1
  Si  Si35  1  0.07051626  0.81429945  0.43987360  1
  Si  Si36  1  0.81429945  0.56012640  0.92948374  1
  Si  Si37  1  0.18570055  0.43987360  0.92948374  1
  Si  Si38  1  0.93987360  0.68570055  0.42948374  1
  Si  Si39  1  0.93987360  0.31429945  0.57051626  1
  Si  Si40  1  0.06012640  0.68570055  0.57051626  1
  Si  Si41  1  0.31429945  0.57051626  0.93987360  1
  Si  Si42  1  0.57051626  0.06012640  0.68570055  1
  Si  Si43  1  0.57051626  0.93987360  0.31429945  1
  Si  Si44  1  0.68570055  0.42948374  0.93987360  1
  Si  Si45  1  0.42948374  0.93987360  0.68570055  1
  Si  Si46  1  0.68570055  0.57051626  0.06012640  1
  Si  Si47  1  0.06512344  0.06512344  0.06512344  1
  Si  Si48  1  0.42948374  0.06012640  0.31429945  1
  Si  Si49  1  0.18570055  0.56012640  0.07051626  1
  Si  Si50  1  0.81429945  0.43987360  0.07051626  1
  Si  Si51  1  0.92948374  0.18570055  0.43987360  1
  Si  Si52  1  0.07051626  0.18570055  0.56012640  1
  Si  Si53  1  0.43987360  0.07051626  0.81429945  1
  Si  Si54  1  0.43987360  0.92948374  0.18570055  1
  Si  Si55  1  0.06012640  0.31429945  0.42948374  1
  Si  Si56  1  0.56512344  0.56512344  0.56512344  1
  Si  Si57  1  0.93487656  0.06512344  0.93487656  1
  Si  Si58  1  0.06512344  0.93487656  0.93487656  1
  Si  Si59  1  0.93487656  0.93487656  0.06512344  1
  Si  Si60  1  0.56512344  0.43487656  0.43487656  1
  Si  Si61  1  0.43487656  0.43487656  0.56512344  1
  Si  Si62  1  0.43487656  0.56512344  0.43487656  1
  Si  Si63  1  0.31429945  0.42948374  0.06012640  1
