# generated using pymatgen
data_Al2Se3
_symmetry_space_group_name_H-M   'P 1'
_cell_length_a   6.77603462
_cell_length_b   6.79651576
_cell_length_c   7.38078142
_cell_angle_alpha   116.52600001
_cell_angle_beta   90.00000000
_cell_angle_gamma   119.90035992
_symmetry_Int_Tables_number   1
_chemical_formula_structural   Al2Se3
_chemical_formula_sum   'Al4 Se6'
_cell_volume   252.55345150
_cell_formula_units_Z   2
loop_
 _symmetry_equiv_pos_site_id
 _symmetry_equiv_pos_as_xyz
  1  'x, y, z'
loop_
 _atom_site_type_symbol
 _atom_site_label
 _atom_site_symmetry_multiplicity
 _atom_site_fract_x
 _atom_site_fract_y
 _atom_site_fract_z
 _atom_site_occupancy
  Al  Al0  1  0.63716051  0.08360766  0.12872702  1
  Al  Al1  1  0.44644715  0.08360766  0.62872702  1
  Al  Al2  1  0.26593505  0.40067517  0.11732339  1
  Al  Al3  1  0.13474112  0.40067517  0.61732339  1
  Se  Se4  1  0.90822530  0.99579156  0.98857913  1
  Se  Se5  1  0.08756626  0.99579156  0.48857913  1
  Se  Se6  1  0.58557247  0.34397636  0.01313823  1
  Se  Se7  1  0.75840389  0.34397636  0.51313823  1
  Se  Se8  1  0.24729820  0.67574724  0.00223122  1
  Se  Se9  1  0.42845004  0.67574724  0.50223222  1
