# generated using pymatgen
data_AlAs
_symmetry_space_group_name_H-M   'P 1'
_cell_length_a   4.01339825
_cell_length_b   4.01339797
_cell_length_c   4.01339746
_cell_angle_alpha   59.99999597
_cell_angle_beta   59.99999827
_cell_angle_gamma   59.99999654
_symmetry_Int_Tables_number   1
_chemical_formula_structural   AlAs
_chemical_formula_sum   'Al1 As1'
_cell_volume   45.71109525
_cell_formula_units_Z   1
loop_
 _symmetry_equiv_pos_site_id
 _symmetry_equiv_pos_as_xyz
  1  'x, y, z'
loop_
 _atom_site_type_symbol
 _atom_site_label
 _atom_site_symmetry_multiplicity
 _atom_site_fract_x
 _atom_site_fract_y
 _atom_site_fract_z
 _atom_site_occupancy
  Al  Al0  1  0.00000000  0.00000000  0.00000000  1
  As  As1  1  0.25000000  0.25000000  0.25000000  1
