# generated using pymatgen
data_InI2
_symmetry_space_group_name_H-M   'P 1'
_cell_length_a   8.50177124
_cell_length_b   11.11268285
_cell_length_c   11.35055527
_cell_angle_alpha   90.00000000
_cell_angle_beta   90.00000000
_cell_angle_gamma   90.00000000
_symmetry_Int_Tables_number   1
_chemical_formula_structural   InI2
_chemical_formula_sum   'In8 I16'
_cell_volume   1072.37194311
_cell_formula_units_Z   8
loop_
 _symmetry_equiv_pos_site_id
 _symmetry_equiv_pos_as_xyz
  1  'x, y, z'
loop_
 _atom_site_type_symbol
 _atom_site_label
 _atom_site_symmetry_multiplicity
 _atom_site_fract_x
 _atom_site_fract_y
 _atom_site_fract_z
 _atom_site_occupancy
  In  In0  1  0.25000000  0.00000000  0.67826472  1
  In  In1  1  0.25000000  0.50000000  0.82173528  1
  In  In2  1  0.75000000  0.00000000  0.32173528  1
  In  In3  1  0.75000000  0.50000000  0.17826472  1
  In  In4  1  0.65139877  0.25000000  0.75000000  1
  In  In5  1  0.84860123  0.75000000  0.75000000  1
  In  In6  1  0.34860123  0.75000000  0.25000000  1
  In  In7  1  0.15139877  0.25000000  0.25000000  1
  I  I8  1  0.50899322  0.95387857  0.81623480  1
  I  I9  1  0.50899322  0.54612143  0.68376520  1
  I  I10  1  0.99100678  0.45387857  0.68376520  1
  I  I11  1  0.99100678  0.04612143  0.81623480  1
  I  I12  1  0.49100678  0.04612143  0.18376520  1
  I  I13  1  0.49100678  0.45387857  0.31623480  1
  I  I14  1  0.00899322  0.54612143  0.31623480  1
  I  I15  1  0.00899322  0.95387857  0.18376520  1
  I  I16  1  0.34296764  0.19415148  0.54672535  1
  I  I17  1  0.34296764  0.30584852  0.95327465  1
  I  I18  1  0.15703236  0.69415148  0.95327465  1
  I  I19  1  0.15703236  0.80584852  0.54672535  1
  I  I20  1  0.65703236  0.80584852  0.45327465  1
  I  I21  1  0.65703236  0.69415148  0.04672535  1
  I  I22  1  0.84296764  0.30584852  0.04672535  1
  I  I23  1  0.84296764  0.19415148  0.45327465  1
