# generated using pymatgen
data_IrBr3
_symmetry_space_group_name_H-M   'P 1'
_cell_length_a   6.40903995
_cell_length_b   6.40764336
_cell_length_c   6.51771384
_cell_angle_alpha   80.98662968
_cell_angle_beta   71.74408023
_cell_angle_gamma   59.99279824
_symmetry_Int_Tables_number   1
_chemical_formula_structural   IrBr3
_chemical_formula_sum   'Ir2 Br6'
_cell_volume   220.11870533
_cell_formula_units_Z   2
loop_
 _symmetry_equiv_pos_site_id
 _symmetry_equiv_pos_as_xyz
  1  'x, y, z'
loop_
 _atom_site_type_symbol
 _atom_site_label
 _atom_site_symmetry_multiplicity
 _atom_site_fract_x
 _atom_site_fract_y
 _atom_site_fract_z
 _atom_site_occupancy
  Ir  Ir0  1  0.83335500  0.33329001  0.00000000  1
  Ir  Ir1  1  0.16664500  0.66670999  -0.00000000  1
  Br  Br2  1  0.57160832  0.35229206  0.77505265  1
  Br  Br3  1  0.07609962  0.35229206  0.22494735  1
  Br  Br4  1  0.78007400  -0.00000000  0.22530150  1
  Br  Br5  1  0.21992600  0.00000000  0.77469850  1
  Br  Br6  1  0.92390038  0.64770894  0.77505265  1
  Br  Br7  1  0.42839168  0.64770894  0.22494735  1
