# generated using pymatgen
data_PtI2
_symmetry_space_group_name_H-M   'P 1'
_cell_length_a   6.80155128
_cell_length_b   7.02405769
_cell_length_c   8.91745072
_cell_angle_alpha   90.00000000
_cell_angle_beta   90.00000000
_cell_angle_gamma   103.28055101
_symmetry_Int_Tables_number   1
_chemical_formula_structural   PtI2
_chemical_formula_sum   'Pt4 I8'
_cell_volume   414.63337722
_cell_formula_units_Z   4
loop_
 _symmetry_equiv_pos_site_id
 _symmetry_equiv_pos_as_xyz
  1  'x, y, z'
loop_
 _atom_site_type_symbol
 _atom_site_label
 _atom_site_symmetry_multiplicity
 _atom_site_fract_x
 _atom_site_fract_y
 _atom_site_fract_z
 _atom_site_occupancy
  Pt  Pt0  1  0.77152874  0.50031921  0.62996453  1
  Pt  Pt1  1  0.22847126  -0.00031921  0.12996453  1
  Pt  Pt2  1  0.22847126  0.49968079  0.37003547  1
  Pt  Pt3  1  0.77152874  0.00031921  0.87003547  1
  I  I4  1  0.55325436  0.25812826  0.82395695  1
  I  I5  1  0.44674564  0.24187174  0.32395695  1
  I  I6  1  0.44674564  0.74187174  0.17604405  1
  I  I7  1  0.55325436  0.75812826  0.67604305  1
  I  I8  1  0.01721496  0.77422741  0.92432686  1
  I  I9  1  0.98278504  0.72577259  0.42432686  1
  I  I10  1  0.98278504  0.22577259  0.07567314  1
  I  I11  1  0.01721496  0.27422741  0.57567314  1
