# generated using pymatgen
data_NbBr5
_symmetry_space_group_name_H-M   'P 1'
_cell_length_a   6.30414697
_cell_length_b   13.30064825
_cell_length_c   19.08076837
_cell_angle_alpha   90.00000000
_cell_angle_beta   90.00000000
_cell_angle_gamma   90.00000000
_symmetry_Int_Tables_number   1
_chemical_formula_structural   NbBr5
_chemical_formula_sum   'Nb8 Br40'
_cell_volume   1599.90795247
_cell_formula_units_Z   8
loop_
 _symmetry_equiv_pos_site_id
 _symmetry_equiv_pos_as_xyz
  1  'x, y, z'
loop_
 _atom_site_type_symbol
 _atom_site_label
 _atom_site_symmetry_multiplicity
 _atom_site_fract_x
 _atom_site_fract_y
 _atom_site_fract_z
 _atom_site_occupancy
  Nb  Nb0  1  0.99290961  0.12482745  0.13958930  1
  Nb  Nb1  1  0.49290961  0.37517255  0.86041070  1
  Nb  Nb2  1  0.50709039  0.62482745  0.36041070  1
  Nb  Nb3  1  0.00709039  0.87517255  0.63958930  1
  Nb  Nb4  1  0.00709039  0.87517255  0.86041070  1
  Nb  Nb5  1  0.50709039  0.62482745  0.13958930  1
  Nb  Nb6  1  0.49290961  0.37517255  0.63958930  1
  Nb  Nb7  1  0.99290961  0.12482745  0.36041070  1
  Br  Br8  1  0.26294372  0.70746166  0.05904193  1
  Br  Br9  1  0.76294372  0.79253834  0.94095807  1
  Br  Br10  1  0.23705628  0.20746266  0.44095807  1
  Br  Br11  1  0.73705628  0.29253834  0.55904193  1
  Br  Br12  1  0.73705628  0.29253834  0.94095807  1
  Br  Br13  1  0.23705628  0.20746266  0.05904193  1
  Br  Br14  1  0.76294372  0.79253834  0.55904193  1
  Br  Br15  1  0.26294372  0.70746166  0.44095807  1
  Br  Br16  1  0.21791193  0.20116506  0.25000000  1
  Br  Br17  1  0.71791193  0.29883494  0.75000000  1
  Br  Br18  1  0.28208807  0.70116506  0.25000000  1
  Br  Br19  1  0.78208807  0.79883494  0.75000000  1
  Br  Br20  1  0.76780879  0.04876506  0.25000000  1
  Br  Br21  1  0.26780879  0.45123494  0.75000000  1
  Br  Br22  1  0.73219121  0.54876506  0.25000000  1
  Br  Br23  1  0.23219121  0.95123494  0.75000000  1
  Br  Br24  1  0.22167421  0.97306811  0.34793245  1
  Br  Br25  1  0.72167421  0.52693189  0.65206755  1
  Br  Br26  1  0.27832579  0.47306811  0.15206755  1
  Br  Br27  1  0.77832579  0.02693189  0.84793245  1
  Br  Br28  1  0.77832579  0.02693189  0.65206755  1
  Br  Br29  1  0.27832579  0.47306811  0.34793245  1
  Br  Br30  1  0.72167421  0.52693189  0.84793245  1
  Br  Br31  1  0.22167421  0.97306811  0.15206755  1
  Br  Br32  1  0.26556337  0.22293946  0.65191490  1
  Br  Br33  1  0.76556337  0.27706054  0.34808510  1
  Br  Br34  1  0.23443663  0.72293946  0.84808510  1
  Br  Br35  1  0.73443663  0.77706054  0.15191490  1
  Br  Br36  1  0.73443663  0.77706054  0.34808510  1
  Br  Br37  1  0.23443663  0.72293946  0.65191490  1
  Br  Br38  1  0.76556337  0.27706054  0.15191490  1
  Br  Br39  1  0.26556337  0.22293946  0.84808510  1
  Br  Br40  1  0.74798468  0.04208505  0.44057455  1
  Br  Br41  1  0.24798468  0.45791495  0.55942545  1
  Br  Br42  1  0.75201532  0.54208505  0.05942545  1
  Br  Br43  1  0.25201532  0.95791495  0.94057455  1
  Br  Br44  1  0.25201532  0.95791495  0.55942545  1
  Br  Br45  1  0.75201532  0.54208505  0.44057455  1
  Br  Br46  1  0.24798468  0.45791495  0.94057455  1
  Br  Br47  1  0.74798468  0.04208505  0.05942545  1
