# generated using pymatgen
data_VCl2
_symmetry_space_group_name_H-M   'P 1'
_cell_length_a   3.63879131
_cell_length_b   3.63879007
_cell_length_c   6.09125368
_cell_angle_alpha   90.00000000
_cell_angle_beta   90.00000000
_cell_angle_gamma   120.00001114
_symmetry_Int_Tables_number   1
_chemical_formula_structural   VCl2
_chemical_formula_sum   'V1 Cl2'
_cell_volume   69.84758905
_cell_formula_units_Z   1
loop_
 _symmetry_equiv_pos_site_id
 _symmetry_equiv_pos_as_xyz
  1  'x, y, z'
loop_
 _atom_site_type_symbol
 _atom_site_label
 _atom_site_symmetry_multiplicity
 _atom_site_fract_x
 _atom_site_fract_y
 _atom_site_fract_z
 _atom_site_occupancy
  V  V0  1  0.00000000  -0.00000000  -0.00000000  1
  Cl  Cl1  1  0.66666700  0.33333300  0.77834618  1
  Cl  Cl2  1  0.33333300  0.66666700  0.22165382  1
