# generated using pymatgen
data_IBr
_symmetry_space_group_name_H-M   'P 1'
_cell_length_a   4.45379094
_cell_length_b   4.45379146
_cell_length_c   8.64682207
_cell_angle_alpha   90.00000000
_cell_angle_beta   90.00000000
_cell_angle_gamma   109.72780967
_symmetry_Int_Tables_number   1
_chemical_formula_structural   IBr
_chemical_formula_sum   'I2 Br2'
_cell_volume   161.45348829
_cell_formula_units_Z   2
loop_
 _symmetry_equiv_pos_site_id
 _symmetry_equiv_pos_as_xyz
  1  'x, y, z'
loop_
 _atom_site_type_symbol
 _atom_site_label
 _atom_site_symmetry_multiplicity
 _atom_site_fract_x
 _atom_site_fract_y
 _atom_site_fract_z
 _atom_site_occupancy
  I  I0  1  0.49995581  0.49995581  0.62567440  1
  I  I1  1  0.50004419  0.50004419  0.12567440  1
  Br  Br2  1  0.82272527  0.82272527  0.37522560  1
  Br  Br3  1  0.17727473  0.17727473  0.87522560  1
