# generated using pymatgen
data_WBr6
_symmetry_space_group_name_H-M   'P 1'
_cell_length_a   7.06639068
_cell_length_b   7.06639137
_cell_length_c   7.06639095
_cell_angle_alpha   55.31717954
_cell_angle_beta   55.31717472
_cell_angle_gamma   55.31718385
_symmetry_Int_Tables_number   1
_chemical_formula_structural   WBr6
_chemical_formula_sum   'W1 Br6'
_cell_volume   222.35534422
_cell_formula_units_Z   1
loop_
 _symmetry_equiv_pos_site_id
 _symmetry_equiv_pos_as_xyz
  1  'x, y, z'
loop_
 _atom_site_type_symbol
 _atom_site_label
 _atom_site_symmetry_multiplicity
 _atom_site_fract_x
 _atom_site_fract_y
 _atom_site_fract_z
 _atom_site_occupancy
  W  W0  1  -0.00000000  0.00000000  -0.00000000  1
  Br  Br1  1  0.22963767  0.61673555  0.91560504  1
  Br  Br2  1  0.91560504  0.22963767  0.61673555  1
  Br  Br3  1  0.61673555  0.91560504  0.22963767  1
  Br  Br4  1  0.77036233  0.38326445  0.08439496  1
  Br  Br5  1  0.08439496  0.77036233  0.38326445  1
  Br  Br6  1  0.38326445  0.08439496  0.77036233  1
