# generated using pymatgen
data_PBr5
_symmetry_space_group_name_H-M   'P 1'
_cell_length_a   5.76484501
_cell_length_b   8.45586079
_cell_length_c   17.40419994
_cell_angle_alpha   90.00000000
_cell_angle_beta   90.00000000
_cell_angle_gamma   90.00000000
_symmetry_Int_Tables_number   1
_chemical_formula_structural   PBr5
_chemical_formula_sum   'P4 Br20'
_cell_volume   848.39778105
_cell_formula_units_Z   4
loop_
 _symmetry_equiv_pos_site_id
 _symmetry_equiv_pos_as_xyz
  1  'x, y, z'
loop_
 _atom_site_type_symbol
 _atom_site_label
 _atom_site_symmetry_multiplicity
 _atom_site_fract_x
 _atom_site_fract_y
 _atom_site_fract_z
 _atom_site_occupancy
  P  P0  1  0.02324049  0.75000000  0.36476877  1
  P  P1  1  0.02324049  0.25000000  0.13523123  1
  P  P2  1  0.97675951  0.25000000  0.63523123  1
  P  P3  1  0.97675951  0.75000000  0.86476877  1
  Br  Br4  1  0.17523487  0.75000000  0.75768480  1
  Br  Br5  1  0.17523487  0.25000000  0.74231520  1
  Br  Br6  1  0.82476513  0.25000000  0.24231620  1
  Br  Br7  1  0.82476513  0.75000000  0.25768380  1
  Br  Br8  1  0.75793926  0.96029480  0.87086297  1
  Br  Br9  1  0.75793926  0.03970520  0.62913703  1
  Br  Br10  1  0.24206074  0.46029480  0.12913703  1
  Br  Br11  1  0.24206074  0.53970520  0.37086297  1
  Br  Br12  1  0.24206074  0.03970520  0.12913703  1
  Br  Br13  1  0.24206074  0.96029480  0.37086297  1
  Br  Br14  1  0.75793926  0.53970520  0.87086297  1
  Br  Br15  1  0.75793926  0.46029480  0.62913703  1
  Br  Br16  1  0.43850756  0.75000000  0.60308571  1
  Br  Br17  1  0.43850756  0.25000000  0.89691429  1
  Br  Br18  1  0.56149244  0.25000000  0.39691429  1
  Br  Br19  1  0.56149244  0.75000000  0.10308571  1
  Br  Br20  1  0.78555179  0.75000000  0.46150229  1
  Br  Br21  1  0.78555179  0.25000000  0.03849771  1
  Br  Br22  1  0.21444821  0.25000000  0.53849771  1
  Br  Br23  1  0.21444821  0.75000000  0.96150229  1
