# generated using pymatgen
data_Si3P2Pt
_symmetry_space_group_name_H-M   'P 1'
_cell_length_a   4.86306707
_cell_length_b   5.49931364
_cell_length_c   8.10097196
_cell_angle_alpha   91.49909619
_cell_angle_beta   93.48593771
_cell_angle_gamma   108.02673800
_symmetry_Int_Tables_number   1
_chemical_formula_structural   Si3P2Pt
_chemical_formula_sum   'Si6 P4 Pt2'
_cell_volume   205.40161030
_cell_formula_units_Z   2
loop_
 _symmetry_equiv_pos_site_id
 _symmetry_equiv_pos_as_xyz
  1  'x, y, z'
loop_
 _atom_site_type_symbol
 _atom_site_label
 _atom_site_symmetry_multiplicity
 _atom_site_fract_x
 _atom_site_fract_y
 _atom_site_fract_z
 _atom_site_occupancy
  Si  Si0  1  0.66792943  0.60808309  0.07398242  1
  Si  Si1  1  0.17713602  0.75445881  0.80427753  1
  Si  Si2  1  0.66621572  0.96274728  0.75472827  1
  Si  Si3  1  0.56042920  0.33080028  0.66949313  1
  Si  Si4  1  0.35408562  0.02430190  0.23321736  1
  Si  Si5  1  0.05701218  0.45227743  0.39646474  1
  P  P6  1  0.19191582  0.11838104  0.47894705  1
  P  P7  1  0.29579867  0.39776205  0.88593559  1
  P  P8  1  0.49443488  0.69258070  0.31780252  1
  P  P9  1  0.79511064  0.27059851  0.16345007  1
  Pt  Pt10  1  0.85245314  0.71520581  0.55845881  1
  Pt  Pt11  1  -0.00032033  -0.00148591  0.00090951  1
