# generated using pymatgen
data_PbF3
_symmetry_space_group_name_H-M   'P 1'
_cell_length_a   5.34222739
_cell_length_b   5.34222739
_cell_length_c   8.87795725
_cell_angle_alpha   90.00000000
_cell_angle_beta   90.00000000
_cell_angle_gamma   90.00000000
_symmetry_Int_Tables_number   1
_chemical_formula_structural   PbF3
_chemical_formula_sum   'Pb4 F12'
_cell_volume   253.37151531
_cell_formula_units_Z   4
loop_
 _symmetry_equiv_pos_site_id
 _symmetry_equiv_pos_as_xyz
  1  'x, y, z'
loop_
 _atom_site_type_symbol
 _atom_site_label
 _atom_site_symmetry_multiplicity
 _atom_site_fract_x
 _atom_site_fract_y
 _atom_site_fract_z
 _atom_site_occupancy
  Pb  Pb0  1  0.50000000  0.50000000  0.50000000  1
  Pb  Pb1  1  0.50000000  0.50000000  0.00000000  1
  Pb  Pb2  1  -0.00000000  0.00000000  0.75000000  1
  Pb  Pb3  1  -0.00000000  0.00000000  0.25000000  1
  F  F4  1  0.20328131  0.79705109  0.59249262  1
  F  F5  1  0.79671869  0.20294891  0.59249262  1
  F  F6  1  0.79705109  0.79671869  0.40750738  1
  F  F7  1  0.20294891  0.20328131  0.40750738  1
  F  F8  1  0.28052603  0.71947497  0.25000000  1
  F  F9  1  0.71947497  0.71947497  0.75000000  1
  F  F10  1  0.28052603  0.28052603  0.75000000  1
  F  F11  1  0.71947497  0.28052603  0.25000000  1
  F  F12  1  0.20328131  0.20294891  0.09249262  1
  F  F13  1  0.20294891  0.79671869  0.90750738  1
  F  F14  1  0.79705109  0.20328131  0.90750738  1
  F  F15  1  0.79671869  0.79705109  0.09249262  1
