# generated using pymatgen
data_TlBr2
_symmetry_space_group_name_H-M   'P 1'
_cell_length_a   8.08444429
_cell_length_b   10.41233567
_cell_length_c   10.60330910
_cell_angle_alpha   90.00000000
_cell_angle_beta   90.00000000
_cell_angle_gamma   90.00000000
_symmetry_Int_Tables_number   1
_chemical_formula_structural   TlBr2
_chemical_formula_sum   'Tl8 Br16'
_cell_volume   892.56479837
_cell_formula_units_Z   8
loop_
 _symmetry_equiv_pos_site_id
 _symmetry_equiv_pos_as_xyz
  1  'x, y, z'
loop_
 _atom_site_type_symbol
 _atom_site_label
 _atom_site_symmetry_multiplicity
 _atom_site_fract_x
 _atom_site_fract_y
 _atom_site_fract_z
 _atom_site_occupancy
  Tl  Tl0  1  0.67828757  0.25000000  0.25000000  1
  Tl  Tl1  1  0.82171243  0.75000000  0.25000000  1
  Tl  Tl2  1  0.32171243  0.75000000  0.75000000  1
  Tl  Tl3  1  0.17828757  0.25000000  0.75000000  1
  Tl  Tl4  1  0.25000000  0.00000000  0.17725168  1
  Tl  Tl5  1  0.25000000  0.50000000  0.32274832  1
  Tl  Tl6  1  0.75000000  0.00000000  0.82274832  1
  Tl  Tl7  1  0.75000000  0.50000000  0.67725168  1
  Br  Br8  1  0.35258409  0.19344620  0.04342093  1
  Br  Br9  1  0.35258409  0.30655380  0.45657907  1
  Br  Br10  1  0.14741591  0.69344620  0.45657907  1
  Br  Br11  1  0.14741591  0.80655380  0.04342093  1
  Br  Br12  1  0.64741591  0.80655380  0.95657907  1
  Br  Br13  1  0.64741591  0.69344620  0.54342093  1
  Br  Br14  1  0.85258409  0.30655380  0.54342093  1
  Br  Br15  1  0.85258409  0.19344620  0.95657907  1
  Br  Br16  1  0.99477574  0.04627722  0.32102005  1
  Br  Br17  1  0.99477574  0.45372278  0.17897995  1
  Br  Br18  1  0.50522426  0.54627722  0.17897995  1
  Br  Br19  1  0.50522426  0.95372278  0.32102005  1
  Br  Br20  1  0.00522426  0.95372278  0.67897995  1
  Br  Br21  1  0.00522426  0.54627722  0.82102005  1
  Br  Br22  1  0.49477574  0.45372278  0.82102005  1
  Br  Br23  1  0.49477574  0.04627722  0.67897995  1
