# generated using pymatgen
data_InBr
_symmetry_space_group_name_H-M   'P 1'
_cell_length_a   4.58875027
_cell_length_b   4.60241888
_cell_length_c   6.57306425
_cell_angle_alpha   90.00000000
_cell_angle_beta   110.42967823
_cell_angle_gamma   90.00000000
_symmetry_Int_Tables_number   1
_chemical_formula_structural   InBr
_chemical_formula_sum   'In2 Br2'
_cell_volume   130.08732632
_cell_formula_units_Z   2
loop_
 _symmetry_equiv_pos_site_id
 _symmetry_equiv_pos_as_xyz
  1  'x, y, z'
loop_
 _atom_site_type_symbol
 _atom_site_label
 _atom_site_symmetry_multiplicity
 _atom_site_fract_x
 _atom_site_fract_y
 _atom_site_fract_z
 _atom_site_occupancy
  In  In0  1  0.60655373  0.25000000  0.21310946  1
  In  In1  1  0.39344627  0.75000000  0.78689054  1
  Br  Br2  1  0.84872823  0.25000000  0.69745446  1
  Br  Br3  1  0.15127177  0.75000000  0.30254554  1
