# generated using pymatgen
data_Mg3P2
_symmetry_space_group_name_H-M   'P 1'
_cell_length_a   10.40148717
_cell_length_b   10.40148740
_cell_length_c   10.40148748
_cell_angle_alpha   109.47122468
_cell_angle_beta   109.47122513
_cell_angle_gamma   109.47121845
_symmetry_Int_Tables_number   1
_chemical_formula_structural   Mg3P2
_chemical_formula_sum   'Mg24 P16'
_cell_volume   866.29221397
_cell_formula_units_Z   8
loop_
 _symmetry_equiv_pos_site_id
 _symmetry_equiv_pos_as_xyz
  1  'x, y, z'
loop_
 _atom_site_type_symbol
 _atom_site_label
 _atom_site_symmetry_multiplicity
 _atom_site_fract_x
 _atom_site_fract_y
 _atom_site_fract_z
 _atom_site_occupancy
  Mg  Mg0  1  0.52673318  0.76606347  0.53250217  1
  Mg  Mg1  1  0.99423101  0.96749783  0.73356030  1
  Mg  Mg2  1  0.26067071  0.76643970  0.73393653  1
  Mg  Mg3  1  0.50576899  0.23932929  0.97326682  1
  Mg  Mg4  1  0.96749783  0.73356030  0.99423101  1
  Mg  Mg5  1  0.73393653  0.26067071  0.76643970  1
  Mg  Mg6  1  0.23932929  0.97326682  0.50576899  1
  Mg  Mg7  1  0.53250217  0.52673318  0.76606347  1
  Mg  Mg8  1  0.76606347  0.53250217  0.52673318  1
  Mg  Mg9  1  0.73356030  0.99423101  0.96749783  1
  Mg  Mg10  1  0.76643970  0.73393653  0.26067071  1
  Mg  Mg11  1  0.97326682  0.50576899  0.23932929  1
  Mg  Mg12  1  0.47326582  0.23393653  0.46749783  1
  Mg  Mg13  1  0.00576899  0.03250217  0.26643970  1
  Mg  Mg14  1  0.73932929  0.23356030  0.26606347  1
  Mg  Mg15  1  0.49423101  0.76067071  0.02673418  1
  Mg  Mg16  1  0.03250217  0.26643970  0.00576899  1
  Mg  Mg17  1  0.26606347  0.73932929  0.23356030  1
  Mg  Mg18  1  0.76067071  0.02673418  0.49423101  1
  Mg  Mg19  1  0.46749783  0.47326582  0.23393653  1
  Mg  Mg20  1  0.23393653  0.46749783  0.47326582  1
  Mg  Mg21  1  0.26643970  0.00576899  0.03250217  1
  Mg  Mg22  1  0.23356030  0.26606347  0.73932929  1
  Mg  Mg23  1  0.02673418  0.49423101  0.76067071  1
  P  P24  1  0.50000000  0.50000000  0.50000000  1
  P  P25  1  0.00000000  0.00000000  0.50000000  1
  P  P26  1  0.50000000  0.00000000  0.00000000  1
  P  P27  1  0.00000000  0.50000000  0.00000000  1
  P  P28  1  0.25000000  0.22617632  0.97617632  1
  P  P29  1  0.27382368  0.52382368  0.75000000  1
  P  P30  1  0.52382368  0.75000000  0.27382368  1
  P  P31  1  0.22617632  0.97617632  0.25000000  1
  P  P32  1  0.97617632  0.25000000  0.22617632  1
  P  P33  1  0.75000000  0.27382368  0.52382368  1
  P  P34  1  0.75000000  0.77382368  0.02382368  1
  P  P35  1  0.72617632  0.47617632  0.25000000  1
  P  P36  1  0.47617632  0.25000000  0.72617632  1
  P  P37  1  0.77382368  0.02382368  0.75000000  1
  P  P38  1  0.02382368  0.75000000  0.77382368  1
  P  P39  1  0.25000000  0.72617632  0.47617632  1
