# generated using pymatgen
data_TlP5
_symmetry_space_group_name_H-M   'P 1'
_cell_length_a   6.49947006
_cell_length_b   7.12534070
_cell_length_c   12.30550187
_cell_angle_alpha   90.00000000
_cell_angle_beta   90.00000000
_cell_angle_gamma   90.00000000
_symmetry_Int_Tables_number   1
_chemical_formula_structural   TlP5
_chemical_formula_sum   'Tl4 P20'
_cell_volume   569.87934089
_cell_formula_units_Z   4
loop_
 _symmetry_equiv_pos_site_id
 _symmetry_equiv_pos_as_xyz
  1  'x, y, z'
loop_
 _atom_site_type_symbol
 _atom_site_label
 _atom_site_symmetry_multiplicity
 _atom_site_fract_x
 _atom_site_fract_y
 _atom_site_fract_z
 _atom_site_occupancy
  Tl  Tl0  1  0.50000000  0.02663801  0.34159920  1
  Tl  Tl1  1  0.50000000  0.97336199  0.84159920  1
  Tl  Tl2  1  0.00000000  0.77707763  0.50081735  1
  Tl  Tl3  1  0.00000000  0.22292237  0.00081735  1
  P  P4  1  0.50000000  0.35414530  0.04326262  1
  P  P5  1  0.50000000  0.64585470  0.54326262  1
  P  P6  1  0.50000000  0.38904789  0.21579957  1
  P  P7  1  0.50000000  0.61095211  0.71579957  1
  P  P8  1  0.25001412  0.22569294  0.60994425  1
  P  P9  1  0.74998588  0.77430706  0.10994425  1
  P  P10  1  0.74998588  0.22569294  0.60994425  1
  P  P11  1  0.25001412  0.77430706  0.10994425  1
  P  P12  1  0.25340694  0.41104272  0.75930182  1
  P  P13  1  0.74659306  0.58895728  0.25930182  1
  P  P14  1  0.74659306  0.41104272  0.75930182  1
  P  P15  1  0.25340694  0.58895728  0.25930182  1
  P  P16  1  0.00000000  0.61385212  0.73013925  1
  P  P17  1  0.00000000  0.38614788  0.23013925  1
  P  P18  1  0.00000000  0.81722275  0.86077185  1
  P  P19  1  0.00000000  0.18277725  0.36077185  1
  P  P20  1  0.00000000  0.64803319  0.00893900  1
  P  P21  1  0.00000000  0.35196681  0.50893900  1
  P  P22  1  0.50000000  0.34783099  0.51188105  1
  P  P23  1  0.50000000  0.65216901  0.01188105  1
