# generated using pymatgen
data_Bi2S3
_symmetry_space_group_name_H-M   'P 1'
_cell_length_a   3.99779374
_cell_length_b   11.16061767
_cell_length_c   11.59359075
_cell_angle_alpha   90.00364666
_cell_angle_beta   89.99999786
_cell_angle_gamma   90.00002597
_symmetry_Int_Tables_number   1
_chemical_formula_structural   Bi2S3
_chemical_formula_sum   'Bi8 S12'
_cell_volume   517.28106211
_cell_formula_units_Z   4
loop_
 _symmetry_equiv_pos_site_id
 _symmetry_equiv_pos_as_xyz
  1  'x, y, z'
loop_
 _atom_site_type_symbol
 _atom_site_label
 _atom_site_symmetry_multiplicity
 _atom_site_fract_x
 _atom_site_fract_y
 _atom_site_fract_z
 _atom_site_occupancy
  Bi  Bi0  1  0.25000010  0.32637965  0.51754788  1
  Bi  Bi1  1  0.74999999  0.67365107  0.48251082  1
  Bi  Bi2  1  0.75000002  0.82634512  0.98244045  1
  Bi  Bi3  1  0.25000005  0.17369141  0.01751866  1
  Bi  Bi4  1  0.74999989  0.03267636  0.65646596  1
  Bi  Bi5  1  0.24999993  0.96731782  0.34355406  1
  Bi  Bi6  1  0.25000000  0.53259980  0.84351461  1
  Bi  Bi7  1  0.74999976  0.46734378  0.15645014  1
  S  S8  1  0.75000005  0.37128529  0.95178602  1
  S  S9  1  0.25000002  0.62870275  0.04819464  1
  S  S10  1  0.25000005  0.87129045  0.54820722  1
  S  S11  1  0.75000001  0.12872692  0.45181387  1
  S  S12  1  0.74999994  0.44358787  0.62159079  1
  S  S13  1  0.25000012  0.55637226  0.37844217  1
  S  S14  1  0.25000000  0.94359931  0.87841188  1
  S  S15  1  0.75000007  0.05641569  0.12154260  1
  S  S16  1  0.24999999  0.30869307  0.21063429  1
  S  S17  1  0.74999996  0.69129921  0.78934346  1
  S  S18  1  0.75000005  0.80871799  0.28936034  1
  S  S19  1  0.24999999  0.19130320  0.71067316  1
