# generated using pymatgen
data_RbI3
_symmetry_space_group_name_H-M   'P 1'
_cell_length_a   6.76047314
_cell_length_b   9.94751423
_cell_length_c   10.88013811
_cell_angle_alpha   90.00000000
_cell_angle_beta   90.00000000
_cell_angle_gamma   90.00000000
_symmetry_Int_Tables_number   1
_chemical_formula_structural   RbI3
_chemical_formula_sum   'Rb4 I12'
_cell_volume   731.68822993
_cell_formula_units_Z   4
loop_
 _symmetry_equiv_pos_site_id
 _symmetry_equiv_pos_as_xyz
  1  'x, y, z'
loop_
 _atom_site_type_symbol
 _atom_site_label
 _atom_site_symmetry_multiplicity
 _atom_site_fract_x
 _atom_site_fract_y
 _atom_site_fract_z
 _atom_site_occupancy
  Rb  Rb0  1  0.25000000  0.47447218  0.82703771  1
  Rb  Rb1  1  0.75000000  0.52552782  0.17296229  1
  Rb  Rb2  1  0.75000000  0.97447218  0.67296229  1
  Rb  Rb3  1  0.25000000  0.02552782  0.32703771  1
  I  I4  1  0.25000000  0.54496586  0.37339014  1
  I  I5  1  0.75000000  0.45503414  0.62660986  1
  I  I6  1  0.75000000  0.04496586  0.12660986  1
  I  I7  1  0.25000000  0.95503414  0.87339014  1
  I  I8  1  0.25000000  0.73569714  0.57297437  1
  I  I9  1  0.75000000  0.26430286  0.42702563  1
  I  I10  1  0.75000000  0.23569714  0.92702563  1
  I  I11  1  0.25000000  0.76430286  0.07297437  1
  I  I12  1  0.25000000  0.14884089  0.65920190  1
  I  I13  1  0.75000000  0.85115911  0.34079810  1
  I  I14  1  0.75000000  0.64884089  0.84079810  1
  I  I15  1  0.25000000  0.35115911  0.15920190  1
