# generated using pymatgen
data_PdCl2
_symmetry_space_group_name_H-M   'P 1'
_cell_length_a   8.14915248
_cell_length_b   8.14915112
_cell_length_c   8.14915222
_cell_angle_alpha   107.50127693
_cell_angle_beta   107.50126910
_cell_angle_gamma   107.50126680
_symmetry_Int_Tables_number   1
_chemical_formula_structural   PdCl2
_chemical_formula_sum   'Pd6 Cl12'
_cell_volume   444.38834771
_cell_formula_units_Z   6
loop_
 _symmetry_equiv_pos_site_id
 _symmetry_equiv_pos_as_xyz
  1  'x, y, z'
loop_
 _atom_site_type_symbol
 _atom_site_label
 _atom_site_symmetry_multiplicity
 _atom_site_fract_x
 _atom_site_fract_y
 _atom_site_fract_z
 _atom_site_occupancy
  Pd  Pd0  1  0.67993737  0.94684054  0.91343663  1
  Pd  Pd1  1  0.94684054  0.91343663  0.67993737  1
  Pd  Pd2  1  0.91343663  0.67993737  0.94684054  1
  Pd  Pd3  1  0.32006263  0.05315946  0.08656337  1
  Pd  Pd4  1  0.05315946  0.08656337  0.32006263  1
  Pd  Pd5  1  0.08656337  0.32006263  0.05315946  1
  Cl  Cl6  1  0.73627441  0.03403248  0.23149063  1
  Cl  Cl7  1  0.03403248  0.23149063  0.73627441  1
  Cl  Cl8  1  0.23149063  0.73627441  0.03403248  1
  Cl  Cl9  1  0.26372559  0.96596752  0.76850937  1
  Cl  Cl10  1  0.96596752  0.76850937  0.26372559  1
  Cl  Cl11  1  0.76850937  0.26372559  0.96596752  1
  Cl  Cl12  1  0.13659936  0.40125756  0.36822728  1
  Cl  Cl13  1  0.36822728  0.13659936  0.40125756  1
  Cl  Cl14  1  0.40125756  0.36822728  0.13659936  1
  Cl  Cl15  1  0.86340064  0.59874244  0.63177272  1
  Cl  Cl16  1  0.63177272  0.86340064  0.59874244  1
  Cl  Cl17  1  0.59874244  0.63177272  0.86340064  1
