# generated using pymatgen
data_GeI4
_symmetry_space_group_name_H-M   'P 1'
_cell_length_a   12.29993094
_cell_length_b   12.29993094
_cell_length_c   12.29993094
_cell_angle_alpha   90.00000000
_cell_angle_beta   90.00000000
_cell_angle_gamma   90.00000000
_symmetry_Int_Tables_number   1
_chemical_formula_structural   GeI4
_chemical_formula_sum   'Ge8 I32'
_cell_volume   1860.83565591
_cell_formula_units_Z   8
loop_
 _symmetry_equiv_pos_site_id
 _symmetry_equiv_pos_as_xyz
  1  'x, y, z'
loop_
 _atom_site_type_symbol
 _atom_site_label
 _atom_site_symmetry_multiplicity
 _atom_site_fract_x
 _atom_site_fract_y
 _atom_site_fract_z
 _atom_site_occupancy
  Ge  Ge0  1  0.13081712  0.13081712  0.13081712  1
  Ge  Ge1  1  0.36918288  0.86918288  0.63081712  1
  Ge  Ge2  1  0.63081712  0.36918288  0.86918288  1
  Ge  Ge3  1  0.86918288  0.63081712  0.36918288  1
  Ge  Ge4  1  0.86918288  0.86918288  0.86918288  1
  Ge  Ge5  1  0.63081712  0.13081712  0.36918288  1
  Ge  Ge6  1  0.36918288  0.63081712  0.13081712  1
  Ge  Ge7  1  0.13081712  0.36918288  0.63081712  1
  I  I8  1  0.24873267  0.24873267  0.24873267  1
  I  I9  1  0.25126733  0.75126733  0.74873267  1
  I  I10  1  0.74873267  0.25126733  0.75126733  1
  I  I11  1  0.75126733  0.74873267  0.25126733  1
  I  I12  1  0.75126733  0.75126733  0.75126733  1
  I  I13  1  0.74873267  0.24873267  0.25126733  1
  I  I14  1  0.25126733  0.74873267  0.24873267  1
  I  I15  1  0.24873267  0.25126733  0.74873267  1
  I  I16  1  0.02064944  0.00511969  0.25011349  1
  I  I17  1  0.25011349  0.02064944  0.00511969  1
  I  I18  1  0.00511969  0.25011349  0.02064944  1
  I  I19  1  0.49488031  0.74988651  0.52064944  1
  I  I20  1  0.75011349  0.47935056  0.99488031  1
  I  I21  1  0.99488031  0.75011349  0.47935056  1
  I  I22  1  0.24988651  0.97935056  0.50511969  1
  I  I23  1  0.74988651  0.52064944  0.49488031  1
  I  I24  1  0.50511969  0.24988651  0.97935056  1
  I  I25  1  0.52064944  0.49488031  0.74988651  1
  I  I26  1  0.97935056  0.50511969  0.24988651  1
  I  I27  1  0.47935056  0.99488031  0.75011349  1
  I  I28  1  0.97935056  0.99488031  0.74988651  1
  I  I29  1  0.74988651  0.97935056  0.99488031  1
  I  I30  1  0.99488031  0.74988651  0.97935056  1
  I  I31  1  0.50511969  0.25011349  0.47935056  1
  I  I32  1  0.24988651  0.52064944  0.00511969  1
  I  I33  1  0.00511969  0.24988651  0.52064944  1
  I  I34  1  0.75011349  0.02064944  0.49488031  1
  I  I35  1  0.25011349  0.47935056  0.50511969  1
  I  I36  1  0.49488031  0.75011349  0.02064944  1
  I  I37  1  0.47935056  0.50511969  0.25011349  1
  I  I38  1  0.02064944  0.49488031  0.75011349  1
  I  I39  1  0.52064944  0.00511969  0.24988651  1
