# generated using pymatgen
data_TlF3
_symmetry_space_group_name_H-M   'P 1'
_cell_length_a   4.80009224
_cell_length_b   5.93318984
_cell_length_c   7.00645621
_cell_angle_alpha   90.00000000
_cell_angle_beta   90.00000000
_cell_angle_gamma   90.00000000
_symmetry_Int_Tables_number   1
_chemical_formula_structural   TlF3
_chemical_formula_sum   'Tl4 F12'
_cell_volume   199.54288151
_cell_formula_units_Z   4
loop_
 _symmetry_equiv_pos_site_id
 _symmetry_equiv_pos_as_xyz
  1  'x, y, z'
loop_
 _atom_site_type_symbol
 _atom_site_label
 _atom_site_symmetry_multiplicity
 _atom_site_fract_x
 _atom_site_fract_y
 _atom_site_fract_z
 _atom_site_occupancy
  Tl  Tl0  1  0.95978001  0.62979863  0.75000000  1
  Tl  Tl1  1  0.45978001  0.87020137  0.25000000  1
  Tl  Tl2  1  0.54021999  0.12979863  0.75000000  1
  Tl  Tl3  1  0.04021999  0.37020137  0.25000000  1
  F  F4  1  0.34243532  0.16358579  0.43325360  1
  F  F5  1  0.84243532  0.33641421  0.56674640  1
  F  F6  1  0.15756468  0.66358579  0.06674640  1
  F  F7  1  0.65756468  0.83641421  0.93325360  1
  F  F8  1  0.62788619  0.53374192  0.25000000  1
  F  F9  1  0.12788619  0.96625808  0.75000000  1
  F  F10  1  0.87211381  0.03374192  0.25000000  1
  F  F11  1  0.37211381  0.46625808  0.75000000  1
  F  F12  1  0.34243532  0.16358579  0.06674640  1
  F  F13  1  0.84243532  0.33641421  0.93325360  1
  F  F14  1  0.15756468  0.66358579  0.43325360  1
  F  F15  1  0.65756468  0.83641421  0.56674640  1
