# generated using pymatgen
data_EuBr2
_symmetry_space_group_name_H-M   'P 1'
_cell_length_a   7.12188010
_cell_length_b   11.54699065
_cell_length_c   11.54699065
_cell_angle_alpha   90.00000000
_cell_angle_beta   90.00000000
_cell_angle_gamma   90.00000000
_symmetry_Int_Tables_number   1
_chemical_formula_structural   EuBr2
_chemical_formula_sum   'Eu10 Br20'
_cell_volume   949.58159003
_cell_formula_units_Z   10
loop_
 _symmetry_equiv_pos_site_id
 _symmetry_equiv_pos_as_xyz
  1  'x, y, z'
loop_
 _atom_site_type_symbol
 _atom_site_label
 _atom_site_symmetry_multiplicity
 _atom_site_fract_x
 _atom_site_fract_y
 _atom_site_fract_z
 _atom_site_occupancy
  Eu  Eu0  1  0.14852538  0.75000000  0.75000000  1
  Eu  Eu1  1  0.85147462  0.25000000  0.25000000  1
  Eu  Eu2  1  0.75150154  0.60273374  0.08671271  1
  Eu  Eu3  1  0.75150154  0.41328729  0.60273374  1
  Eu  Eu4  1  0.75150154  0.08671271  0.89726626  1
  Eu  Eu5  1  0.75150154  0.89726626  0.41328729  1
  Eu  Eu6  1  0.24849846  0.39726626  0.91328729  1
  Eu  Eu7  1  0.24849846  0.58671271  0.39726626  1
  Eu  Eu8  1  0.24849846  0.91328729  0.10273374  1
  Eu  Eu9  1  0.24849846  0.10273374  0.58671271  1
  Br  Br10  1  0.50000000  0.75000000  0.25000000  1
  Br  Br11  1  0.50000000  0.25000000  0.75000000  1
  Br  Br12  1  0.00000000  0.75000000  0.25000000  1
  Br  Br13  1  0.00000000  0.25000000  0.75000000  1
  Br  Br14  1  0.90057040  0.83883900  0.95732089  1
  Br  Br15  1  0.90057040  0.54267911  0.83883900  1
  Br  Br16  1  0.90057040  0.95732089  0.66116100  1
  Br  Br17  1  0.90057040  0.66116100  0.54267911  1
  Br  Br18  1  0.09942960  0.16116100  0.04267911  1
  Br  Br19  1  0.09942960  0.45732089  0.16116100  1
  Br  Br20  1  0.62302071  0.15334604  0.45955203  1
  Br  Br21  1  0.62302071  0.04044797  0.15334604  1
  Br  Br22  1  0.62302071  0.45955203  0.34665396  1
  Br  Br23  1  0.62302071  0.34665396  0.04044797  1
  Br  Br24  1  0.37697929  0.84665396  0.54044797  1
  Br  Br25  1  0.37697929  0.95955203  0.84665396  1
  Br  Br26  1  0.37697929  0.54044797  0.65334604  1
  Br  Br27  1  0.37697929  0.65334604  0.95955203  1
  Br  Br28  1  0.09942960  0.33883900  0.45732089  1
  Br  Br29  1  0.09942960  0.04267911  0.33883900  1
