# generated using pymatgen
data_RhBr3
_symmetry_space_group_name_H-M   'P 1'
_cell_length_a   6.35219475
_cell_length_b   6.35219418
_cell_length_c   6.54141790
_cell_angle_alpha   99.00278630
_cell_angle_beta   99.00279755
_cell_angle_gamma   119.97736734
_symmetry_Int_Tables_number   1
_chemical_formula_structural   RhBr3
_chemical_formula_sum   'Rh2 Br6'
_cell_volume   217.16068198
_cell_formula_units_Z   2
loop_
 _symmetry_equiv_pos_site_id
 _symmetry_equiv_pos_as_xyz
  1  'x, y, z'
loop_
 _atom_site_type_symbol
 _atom_site_label
 _atom_site_symmetry_multiplicity
 _atom_site_fract_x
 _atom_site_fract_y
 _atom_site_fract_z
 _atom_site_occupancy
  Rh  Rh0  1  0.83335669  0.16664331  1.00000000  1
  Rh  Rh1  1  0.16664331  0.83335669  0.00000000  1
  Br  Br2  1  0.77878873  0.77878873  0.77345630  1
  Br  Br3  1  0.22121127  0.22121127  0.22654370  1
  Br  Br4  1  0.57263880  0.92483819  0.22574853  1
  Br  Br5  1  0.07516181  0.42736120  0.77425147  1
  Br  Br6  1  0.42736120  0.07516181  0.77425147  1
  Br  Br7  1  0.92483819  0.57263880  0.22574853  1
