# generated using pymatgen
data_Al2Te3
_symmetry_space_group_name_H-M   'P 1'
_cell_length_a   7.24797312
_cell_length_b   13.03847237
_cell_length_c   14.77426399
_cell_angle_alpha   90.00000000
_cell_angle_beta   90.23019326
_cell_angle_gamma   90.00000000
_symmetry_Int_Tables_number   1
_chemical_formula_structural   Al2Te3
_chemical_formula_sum   'Al16 Te24'
_cell_volume   1396.19357423
_cell_formula_units_Z   8
loop_
 _symmetry_equiv_pos_site_id
 _symmetry_equiv_pos_as_xyz
  1  'x, y, z'
loop_
 _atom_site_type_symbol
 _atom_site_label
 _atom_site_symmetry_multiplicity
 _atom_site_fract_x
 _atom_site_fract_y
 _atom_site_fract_z
 _atom_site_occupancy
  Al  Al0  1  0.58056369  0.74919516  0.30814837  1
  Al  Al1  1  0.41943631  0.24919516  0.19185163  1
  Al  Al2  1  0.41943631  0.25080484  0.69185163  1
  Al  Al3  1  0.58056369  0.75080484  0.80814837  1
  Al  Al4  1  0.07030404  0.90703012  0.31994333  1
  Al  Al5  1  0.92969596  0.40703012  0.18005667  1
  Al  Al6  1  0.92969596  0.09296988  0.68005667  1
  Al  Al7  1  0.07030404  0.59296988  0.81994333  1
  Al  Al8  1  0.07864452  0.59093692  0.30309933  1
  Al  Al9  1  0.92135548  0.09093692  0.19690067  1
  Al  Al10  1  0.92135548  0.40906308  0.69690067  1
  Al  Al11  1  0.07864452  0.90906308  0.80309933  1
  Al  Al12  1  0.43049900  0.93163258  0.18591204  1
  Al  Al13  1  0.56950100  0.43163258  0.31408896  1
  Al  Al14  1  0.56950100  0.06836742  0.81408896  1
  Al  Al15  1  0.43049900  0.56836742  0.68591104  1
  Te  Te16  1  0.91111950  0.74297006  0.39131445  1
  Te  Te17  1  0.08888050  0.24297006  0.10868555  1
  Te  Te18  1  0.08888050  0.25702994  0.60868555  1
  Te  Te19  1  0.91111950  0.75702994  0.89131445  1
  Te  Te20  1  0.57903236  0.76208192  0.13567430  1
  Te  Te21  1  0.42096764  0.26208192  0.36432570  1
  Te  Te22  1  0.42096764  0.23791808  0.86432570  1
  Te  Te23  1  0.57903236  0.73791808  0.63567430  1
  Te  Te24  1  0.07548748  0.91713980  0.13896372  1
  Te  Te25  1  0.92451252  0.41713980  0.36103628  1
  Te  Te26  1  0.92451252  0.08286020  0.86103628  1
  Te  Te27  1  0.07548748  0.58286020  0.63896372  1
  Te  Te28  1  0.08130317  0.57623875  0.13052438  1
  Te  Te29  1  0.91869683  0.07623875  0.36947562  1
  Te  Te30  1  0.91869683  0.42376125  0.86947562  1
  Te  Te31  1  0.08130317  0.92376125  0.63052438  1
  Te  Te32  1  0.40742389  0.59356082  0.38853407  1
  Te  Te33  1  0.59257611  0.09356082  0.11146593  1
  Te  Te34  1  0.59257611  0.40643918  0.61146593  1
  Te  Te35  1  0.40742389  0.90643918  0.88853407  1
  Te  Te36  1  0.42512490  0.92220868  0.36702457  1
  Te  Te37  1  0.57487510  0.42220868  0.13297543  1
  Te  Te38  1  0.57487510  0.07779132  0.63297543  1
  Te  Te39  1  0.42512490  0.57779132  0.86702457  1
