# generated using pymatgen
data_Pb3O4
_symmetry_space_group_name_H-M   'P 1'
_cell_length_a   6.64596849
_cell_length_b   8.89399404
_cell_length_c   8.89399404
_cell_angle_alpha   90.00000000
_cell_angle_beta   90.00000000
_cell_angle_gamma   90.00000000
_symmetry_Int_Tables_number   1
_chemical_formula_structural   Pb3O4
_chemical_formula_sum   'Pb12 O16'
_cell_volume   525.71690933
_cell_formula_units_Z   4
loop_
 _symmetry_equiv_pos_site_id
 _symmetry_equiv_pos_as_xyz
  1  'x, y, z'
loop_
 _atom_site_type_symbol
 _atom_site_label
 _atom_site_symmetry_multiplicity
 _atom_site_fract_x
 _atom_site_fract_y
 _atom_site_fract_z
 _atom_site_occupancy
  Pb  Pb0  1  0.50000000  0.16344892  0.85556050  1
  Pb  Pb1  1  0.00000000  0.85556050  0.83655108  1
  Pb  Pb2  1  -0.00000000  0.14443950  0.16344892  1
  Pb  Pb3  1  0.50000000  0.33655108  0.35556050  1
  Pb  Pb4  1  -0.00000000  0.64443950  0.33655108  1
  Pb  Pb5  1  0.75000000  -0.00000000  0.50000000  1
  Pb  Pb6  1  0.25000000  0.50000000  -0.00000000  1
  Pb  Pb7  1  0.00000000  0.35556050  0.66344892  1
  Pb  Pb8  1  0.25000000  -0.00000000  0.50000000  1
  Pb  Pb9  1  0.50000000  0.83655108  0.14443950  1
  Pb  Pb10  1  0.50000000  0.66344892  0.64443950  1
  Pb  Pb11  1  0.75000000  0.50000000  -0.00000000  1
  O  O12  1  0.50000000  0.86485536  0.40572737  1
  O  O13  1  0.75000000  0.17141806  0.32858194  1
  O  O14  1  -0.00000000  0.90572737  0.36485536  1
  O  O15  1  0.25000000  0.67141806  0.17141806  1
  O  O16  1  0.25000000  0.32858194  0.82858194  1
  O  O17  1  0.50000000  0.13514464  0.59427263  1
  O  O18  1  0.00000000  0.59427263  0.86485536  1
  O  O19  1  0.25000000  0.17141806  0.32858194  1
  O  O20  1  0.50000000  0.36485536  0.09427263  1
  O  O21  1  0.75000000  0.82858194  0.67141806  1
  O  O22  1  0.75000000  0.32858194  0.82858194  1
  O  O23  1  0.00000000  0.09427263  0.63514464  1
  O  O24  1  -0.00000000  0.40572737  0.13514464  1
  O  O25  1  0.25000000  0.82858194  0.67141806  1
  O  O26  1  0.75000000  0.67141806  0.17141806  1
  O  O27  1  0.50000000  0.63514464  0.90572737  1
