# generated using pymatgen
data_AuCl3
_symmetry_space_group_name_H-M   'P 1'
_cell_length_a   6.67180001
_cell_length_b   6.62502724
_cell_length_c   11.07321838
_cell_angle_alpha   90.00000000
_cell_angle_beta   90.00000000
_cell_angle_gamma   114.35996819
_symmetry_Int_Tables_number   1
_chemical_formula_structural   AuCl3
_chemical_formula_sum   'Au4 Cl12'
_cell_volume   445.87139883
_cell_formula_units_Z   4
loop_
 _symmetry_equiv_pos_site_id
 _symmetry_equiv_pos_as_xyz
  1  'x, y, z'
loop_
 _atom_site_type_symbol
 _atom_site_label
 _atom_site_symmetry_multiplicity
 _atom_site_fract_x
 _atom_site_fract_y
 _atom_site_fract_z
 _atom_site_occupancy
  Au  Au0  1  0.72997028  0.04267048  0.41294766  1
  Au  Au1  1  0.77002972  0.95732952  0.91294766  1
  Au  Au2  1  0.27002972  0.95732952  0.58705234  1
  Au  Au3  1  0.22997028  0.04267048  0.08705234  1
  Cl  Cl4  1  0.88008029  0.81648394  0.34027949  1
  Cl  Cl5  1  0.61991971  0.18351606  0.84027949  1
  Cl  Cl6  1  0.11991971  0.18351606  0.65972051  1
  Cl  Cl7  1  0.38008029  0.81648394  0.15972051  1
  Cl  Cl8  1  0.05958127  0.25919868  0.00450082  1
  Cl  Cl9  1  0.44041873  0.74080132  0.50450082  1
  Cl  Cl10  1  0.94041873  0.74080132  0.99549918  1
  Cl  Cl11  1  0.55958127  0.25919868  0.49549918  1
  Cl  Cl12  1  0.50233168  0.34140929  0.17018039  1
  Cl  Cl13  1  0.99766832  0.65859071  0.67018139  1
  Cl  Cl14  1  0.49766832  0.65859071  0.82981861  1
  Cl  Cl15  1  0.00233168  0.34140929  0.32981961  1
