# generated using pymatgen
data_Br2O3
_symmetry_space_group_name_H-M   'P 1'
_cell_length_a   7.76663531
_cell_length_b   8.84069836
_cell_length_c   11.74174898
_cell_angle_alpha   108.44401389
_cell_angle_beta   90.00000000
_cell_angle_gamma   90.00000000
_symmetry_Int_Tables_number   1
_chemical_formula_structural   Br2O3
_chemical_formula_sum   'Br16 O24'
_cell_volume   764.80482997
_cell_formula_units_Z   8
loop_
 _symmetry_equiv_pos_site_id
 _symmetry_equiv_pos_as_xyz
  1  'x, y, z'
loop_
 _atom_site_type_symbol
 _atom_site_label
 _atom_site_symmetry_multiplicity
 _atom_site_fract_x
 _atom_site_fract_y
 _atom_site_fract_z
 _atom_site_occupancy
  Br  Br0  1  0.50349133  0.69107143  0.95409393  1
  Br  Br1  1  0.00349133  0.80892857  0.04590607  1
  Br  Br2  1  0.49650867  0.30892857  0.04590607  1
  Br  Br3  1  0.99650867  0.19107143  0.95409393  1
  Br  Br4  1  0.21101533  0.52029545  0.78025789  1
  Br  Br5  1  0.71101533  0.97970455  0.21974111  1
  Br  Br6  1  0.78898467  0.47970455  0.21974111  1
  Br  Br7  1  0.28898467  0.02029545  0.78025789  1
  Br  Br8  1  0.20442632  0.74030386  0.22321610  1
  Br  Br9  1  0.70442632  0.75969614  0.77678390  1
  Br  Br10  1  0.79557368  0.25969614  0.77678390  1
  Br  Br11  1  0.29557368  0.24030386  0.22321610  1
  Br  Br12  1  0.20949713  0.69437468  0.47515323  1
  Br  Br13  1  0.70949713  0.80562532  0.52484677  1
  Br  Br14  1  0.79050287  0.30562532  0.52484677  1
  Br  Br15  1  0.29050287  0.19437468  0.47515323  1
  O  O16  1  0.09258176  0.55761641  0.90219886  1
  O  O17  1  0.59258176  0.94238359  0.09780114  1
  O  O18  1  0.90741824  0.44238359  0.09780114  1
  O  O19  1  0.40741824  0.05761641  0.90219886  1
  O  O20  1  0.22301140  0.68250959  0.74342783  1
  O  O21  1  0.72301140  0.81749041  0.25657217  1
  O  O22  1  0.77698860  0.31749041  0.25657217  1
  O  O23  1  0.27698860  0.18250959  0.74342783  1
  O  O24  1  0.43126733  0.50365545  0.84190517  1
  O  O25  1  0.93126733  0.99634455  0.15809483  1
  O  O26  1  0.56873267  0.49634455  0.15809483  1
  O  O27  1  0.06873267  0.00365545  0.84190517  1
  O  O28  1  0.15157787  0.87938197  0.54202294  1
  O  O29  1  0.65157787  0.62061803  0.45797706  1
  O  O30  1  0.84842213  0.12061803  0.45797706  1
  O  O31  1  0.34842213  0.37938197  0.54202294  1
  O  O32  1  0.16058117  0.20634422  0.34622319  1
  O  O33  1  0.66058117  0.29365578  0.65377681  1
  O  O34  1  0.83941883  0.79365578  0.65377681  1
  O  O35  1  0.33941883  0.70634422  0.34622319  1
  O  O36  1  0.46321445  0.10004685  0.41121472  1
  O  O37  1  0.96321445  0.39995315  0.58878528  1
  O  O38  1  0.53678555  0.89995315  0.58878528  1
  O  O39  1  0.03678555  0.60004685  0.41121472  1
