# generated using pymatgen
data_ThI4
_symmetry_space_group_name_H-M   'P 1'
_cell_length_a   8.04356117
_cell_length_b   8.19457376
_cell_length_c   13.43463957
_cell_angle_alpha   90.00000000
_cell_angle_beta   99.30344811
_cell_angle_gamma   90.00000000
_symmetry_Int_Tables_number   1
_chemical_formula_structural   ThI4
_chemical_formula_sum   'Th4 I16'
_cell_volume   873.87665518
_cell_formula_units_Z   4
loop_
 _symmetry_equiv_pos_site_id
 _symmetry_equiv_pos_as_xyz
  1  'x, y, z'
loop_
 _atom_site_type_symbol
 _atom_site_label
 _atom_site_symmetry_multiplicity
 _atom_site_fract_x
 _atom_site_fract_y
 _atom_site_fract_z
 _atom_site_occupancy
  Th  Th0  1  0.32260937  0.51382739  0.31728695  1
  Th  Th1  1  0.17739063  0.01382739  0.18271305  1
  Th  Th2  1  0.67739063  0.48617261  0.68271305  1
  Th  Th3  1  0.82260937  0.98617261  0.81728695  1
  I  I4  1  0.49549963  0.85911289  0.34495597  1
  I  I5  1  0.00450037  0.35911289  0.15504403  1
  I  I6  1  0.50450037  0.14088711  0.65504403  1
  I  I7  1  0.99549963  0.64088711  0.84495597  1
  I  I8  1  0.18387044  0.08762862  0.94194000  1
  I  I9  1  0.31612956  0.58762862  0.55806000  1
  I  I10  1  0.81612956  0.91237138  0.05806000  1
  I  I11  1  0.68387044  0.41237138  0.44194000  1
  I  I12  1  0.51090546  0.74624409  0.81939741  1
  I  I13  1  0.98909454  0.24624409  0.68060259  1
  I  I14  1  0.48909454  0.25375591  0.18060259  1
  I  I15  1  0.01090546  0.75375591  0.31939741  1
  I  I16  1  0.68759415  0.31044140  0.90228473  1
  I  I17  1  0.81240585  0.81044140  0.59771527  1
  I  I18  1  0.31240585  0.68955860  0.09771527  1
  I  I19  1  0.18759415  0.18955860  0.40228473  1
