# generated using pymatgen
data_SiP
_symmetry_space_group_name_H-M   'P 1'
_cell_length_a   3.52225672
_cell_length_b   10.41056083
_cell_length_c   14.41213395
_cell_angle_alpha   90.00457331
_cell_angle_beta   89.99952304
_cell_angle_gamma   99.74140773
_symmetry_Int_Tables_number   1
_chemical_formula_structural   SiP
_chemical_formula_sum   'Si12 P12'
_cell_volume   520.85392293
_cell_formula_units_Z   12
loop_
 _symmetry_equiv_pos_site_id
 _symmetry_equiv_pos_as_xyz
  1  'x, y, z'
loop_
 _atom_site_type_symbol
 _atom_site_label
 _atom_site_symmetry_multiplicity
 _atom_site_fract_x
 _atom_site_fract_y
 _atom_site_fract_z
 _atom_site_occupancy
  Si  Si0  1  0.16987701  0.34009465  0.73866032  1
  Si  Si1  1  0.83012548  0.65988954  0.23856895  1
  Si  Si2  1  0.05893626  0.11829190  0.77879982  1
  Si  Si3  1  0.94105863  0.88170734  0.27868124  1
  Si  Si4  1  0.43462489  0.86991016  0.68465431  1
  Si  Si5  1  0.56534289  0.13007524  0.18454320  1
  Si  Si6  1  0.43154738  0.86388498  0.84699323  1
  Si  Si7  1  0.56842666  0.13611961  0.34688447  1
  Si  Si8  1  0.79410843  0.58848554  0.83244130  1
  Si  Si9  1  0.20592074  0.41154810  0.33232910  1
  Si  Si10  1  0.79718534  0.59434461  0.67017927  1
  Si  Si11  1  0.20282949  0.40562984  0.17007179  1
  P  P12  1  0.99830599  0.99732175  0.64479078  1
  P  P13  1  0.00164463  0.00266790  0.14466185  1
  P  P14  1  0.23053515  0.46133520  0.87244875  1
  P  P15  1  0.76950404  0.53869699  0.37235842  1
  P  P16  1  0.34366842  0.68733415  0.59715836  1
  P  P17  1  0.65634452  0.31262714  0.09704723  1
  P  P18  1  0.53994475  0.08044318  0.87505294  1
  P  P19  1  0.46005154  0.91957177  0.37494872  1
  P  P20  1  0.68869051  0.37763406  0.64241798  1
  P  P21  1  0.31133105  0.62233879  0.14232792  1
  P  P22  1  0.88503070  0.77092142  0.92001168  1
  P  P23  1  0.11496550  0.22912713  0.41988937  1
