# generated using pymatgen
data_HI3
_symmetry_space_group_name_H-M   'P 1'
_cell_length_a   5.08996702
_cell_length_b   9.62621971
_cell_length_c   7.83029354
_cell_angle_alpha   77.74565693
_cell_angle_beta   84.45141127
_cell_angle_gamma   75.23544280
_symmetry_Int_Tables_number   1
_chemical_formula_structural   HI3
_chemical_formula_sum   'H2 I6'
_cell_volume   362.17229418
_cell_formula_units_Z   2
loop_
 _symmetry_equiv_pos_site_id
 _symmetry_equiv_pos_as_xyz
  1  'x, y, z'
loop_
 _atom_site_type_symbol
 _atom_site_label
 _atom_site_symmetry_multiplicity
 _atom_site_fract_x
 _atom_site_fract_y
 _atom_site_fract_z
 _atom_site_occupancy
  H  H0  1  0.13573856  0.79710384  0.53200269  1
  H  H1  1  0.86426144  0.20289616  0.46799731  1
  I  I2  1  0.35562030  0.40482701  0.76079833  1
  I  I3  1  0.33412004  0.87758662  0.24638332  1
  I  I4  1  0.99896387  0.74243184  0.73353493  1
  I  I5  1  0.64437970  0.59517299  0.23920167  1
  I  I6  1  0.66587996  0.12241338  0.75361668  1
  I  I7  1  0.00103613  0.25756816  0.26646507  1
