# generated using pymatgen
data_Si3Ru2
_symmetry_space_group_name_H-M   'P 1'
_cell_length_a   5.54269615
_cell_length_b   8.95125571
_cell_length_c   11.09096159
_cell_angle_alpha   90.00000000
_cell_angle_beta   90.00000000
_cell_angle_gamma   90.00000000
_symmetry_Int_Tables_number   1
_chemical_formula_structural   Si3Ru2
_chemical_formula_sum   'Si24 Ru16'
_cell_volume   550.26797274
_cell_formula_units_Z   8
loop_
 _symmetry_equiv_pos_site_id
 _symmetry_equiv_pos_as_xyz
  1  'x, y, z'
loop_
 _atom_site_type_symbol
 _atom_site_label
 _atom_site_symmetry_multiplicity
 _atom_site_fract_x
 _atom_site_fract_y
 _atom_site_fract_z
 _atom_site_occupancy
  Si  Si0  1  0.60365644  0.10379003  0.63205432  1
  Si  Si1  1  0.10365644  0.39620997  0.86794568  1
  Si  Si2  1  0.89634356  0.10379003  0.36794568  1
  Si  Si3  1  0.39634356  0.39620997  0.13205432  1
  Si  Si4  1  0.39634356  0.89620997  0.36794568  1
  Si  Si5  1  0.89634356  0.60379003  0.13205432  1
  Si  Si6  1  0.10365644  0.89620997  0.63205432  1
  Si  Si7  1  0.60365644  0.60379003  0.86794568  1
  Si  Si8  1  0.91323221  0.06282845  0.82030257  1
  Si  Si9  1  0.41323221  0.43717155  0.67969743  1
  Si  Si10  1  0.58676779  0.06282845  0.17969743  1
  Si  Si11  1  0.08676779  0.43717155  0.32030257  1
  Si  Si12  1  0.08676779  0.93717155  0.17969743  1
  Si  Si13  1  0.58676779  0.56282845  0.32030257  1
  Si  Si14  1  0.41323221  0.93717155  0.82030257  1
  Si  Si15  1  0.91323221  0.56282845  0.67969743  1
  Si  Si16  1  0.55818244  0.70558619  0.57412081  1
  Si  Si17  1  0.05818244  0.79441381  0.92587919  1
  Si  Si18  1  0.94181756  0.70558619  0.42587919  1
  Si  Si19  1  0.44181756  0.79441381  0.07412081  1
  Si  Si20  1  0.44181756  0.29441381  0.42587919  1
  Si  Si21  1  0.94181756  0.20558619  0.07412081  1
  Si  Si22  1  0.05818244  0.29441381  0.57412081  1
  Si  Si23  1  0.55818244  0.20558619  0.92587919  1
  Ru  Ru24  1  0.75000000  0.92381520  0.50000000  1
  Ru  Ru25  1  0.25000000  0.57618480  0.00000000  1
  Ru  Ru26  1  0.25000000  0.07618480  0.50000000  1
  Ru  Ru27  1  0.75000000  0.42381520  0.00000000  1
  Ru  Ru28  1  0.75000000  0.46011445  0.50000000  1
  Ru  Ru29  1  0.25000000  0.03988555  0.00000000  1
  Ru  Ru30  1  0.25000000  0.53988555  0.50000000  1
  Ru  Ru31  1  0.75000000  0.96011445  0.00000000  1
  Ru  Ru32  1  0.76305257  0.31222967  0.74558036  1
  Ru  Ru33  1  0.26305257  0.18777033  0.75441964  1
  Ru  Ru34  1  0.73694743  0.31222967  0.25441964  1
  Ru  Ru35  1  0.23694643  0.18777033  0.24558036  1
  Ru  Ru36  1  0.23694643  0.68777033  0.25441964  1
  Ru  Ru37  1  0.73694743  0.81222967  0.24558036  1
  Ru  Ru38  1  0.26305257  0.68777033  0.74558036  1
  Ru  Ru39  1  0.76305257  0.81222967  0.75441964  1
