# generated using pymatgen
data_Si5Ir3
_symmetry_space_group_name_H-M   'P 1'
_cell_length_a   6.43285516
_cell_length_b   10.43445690
_cell_length_c   14.24053822
_cell_angle_alpha   90.00000000
_cell_angle_beta   90.00000000
_cell_angle_gamma   96.98420830
_symmetry_Int_Tables_number   1
_chemical_formula_structural   Si5Ir3
_chemical_formula_sum   'Si40 Ir24'
_cell_volume   948.77977091
_cell_formula_units_Z   8
loop_
 _symmetry_equiv_pos_site_id
 _symmetry_equiv_pos_as_xyz
  1  'x, y, z'
loop_
 _atom_site_type_symbol
 _atom_site_label
 _atom_site_symmetry_multiplicity
 _atom_site_fract_x
 _atom_site_fract_y
 _atom_site_fract_z
 _atom_site_occupancy
  Si  Si0  1  0.14031700  0.69287195  0.71985075  1
  Si  Si1  1  0.35968300  0.80712805  0.21985075  1
  Si  Si2  1  0.85968300  0.30712805  0.28014925  1
  Si  Si3  1  0.64031700  0.19287195  0.78014925  1
  Si  Si4  1  0.97313151  0.35566936  0.74806127  1
  Si  Si5  1  0.52686849  0.14433064  0.24806127  1
  Si  Si6  1  0.02686849  0.64433064  0.25193873  1
  Si  Si7  1  0.47313151  0.85566936  0.75193873  1
  Si  Si8  1  0.94617556  0.20521029  0.51215216  1
  Si  Si9  1  0.55382444  0.29478971  0.01215216  1
  Si  Si10  1  0.05382444  0.79478971  0.48784784  1
  Si  Si11  1  0.44617556  0.70521029  0.98784784  1
  Si  Si12  1  0.45686922  0.40851508  0.85046879  1
  Si  Si13  1  0.04313078  0.09148492  0.35046879  1
  Si  Si14  1  0.54313078  0.59148492  0.14953121  1
  Si  Si15  1  0.33707848  0.66502908  0.55678408  1
  Si  Si16  1  0.95686922  0.90851508  0.64953121  1
  Si  Si17  1  0.84232358  0.49162102  0.06261267  1
  Si  Si18  1  0.34232358  0.99162102  0.43738733  1
  Si  Si19  1  0.15767642  0.50837898  0.93738733  1
  Si  Si20  1  0.74728545  0.60866613  0.88679955  1
  Si  Si21  1  0.75271455  0.89133387  0.38679955  1
  Si  Si22  1  0.25271455  0.39133387  0.11320045  1
  Si  Si23  1  0.24728545  0.10866613  0.61320045  1
  Si  Si24  1  0.14166790  0.06814954  0.84277446  1
  Si  Si25  1  0.35833210  0.43185046  0.34277446  1
  Si  Si26  1  0.85833210  0.93185046  0.15722554  1
  Si  Si27  1  0.64166790  0.56814954  0.65722554  1
  Si  Si28  1  0.83301899  0.57608008  0.48955417  1
  Si  Si29  1  0.66698101  0.92391992  0.98955417  1
  Si  Si30  1  0.16698101  0.42391992  0.51044583  1
  Si  Si31  1  0.33301899  0.07608008  0.01044583  1
  Si  Si32  1  0.46215202  0.32820065  0.60930568  1
  Si  Si33  1  0.03784798  0.17179935  0.10930568  1
  Si  Si34  1  0.53784798  0.67179935  0.39069432  1
  Si  Si35  1  0.96215202  0.82820065  0.89069432  1
  Si  Si36  1  0.83707848  0.16502908  0.94321592  1
  Si  Si37  1  0.66292152  0.33497092  0.44321592  1
  Si  Si38  1  0.16292152  0.83497092  0.05678408  1
  Si  Si39  1  0.65767642  0.00837898  0.56261267  1
  Ir  Ir40  1  0.26087196  0.49391598  0.66429572  1
  Ir  Ir41  1  0.23912804  0.00608402  0.16429572  1
  Ir  Ir42  1  0.73912804  0.50608402  0.33570428  1
  Ir  Ir43  1  0.76087196  0.99391598  0.83570428  1
  Ir  Ir44  1  0.39652793  0.63264904  0.83390260  1
  Ir  Ir45  1  0.10347207  0.86735096  0.33390260  1
  Ir  Ir46  1  0.60347207  0.36735096  0.16609740  1
  Ir  Ir47  1  0.89652793  0.13264904  0.66609740  1
  Ir  Ir48  1  0.69249628  0.77237584  0.54322510  1
  Ir  Ir49  1  0.80750372  0.72762416  0.04322510  1
  Ir  Ir50  1  0.30750372  0.22762416  0.45677390  1
  Ir  Ir51  1  0.19249628  0.27237584  0.95677490  1
  Ir  Ir52  1  0.79330344  0.74398462  0.74764352  1
  Ir  Ir53  1  0.70669656  0.75601538  0.24764352  1
  Ir  Ir54  1  0.20669656  0.25601538  0.25235648  1
  Ir  Ir55  1  0.29330344  0.24398462  0.75235648  1
  Ir  Ir56  1  0.32899941  0.89654078  0.90677586  1
  Ir  Ir57  1  0.17100059  0.60345922  0.40677586  1
  Ir  Ir58  1  0.67100059  0.10345922  0.09322414  1
  Ir  Ir59  1  0.82899941  0.39654078  0.59322414  1
  Ir  Ir60  1  0.18290853  0.61122254  0.09848296  1
  Ir  Ir61  1  0.31709147  0.88877746  0.59848296  1
  Ir  Ir62  1  0.81709147  0.38877746  0.90151704  1
  Ir  Ir63  1  0.68290853  0.11122254  0.40151704  1
