# generated using pymatgen
data_CsS
_symmetry_space_group_name_H-M   'P 1'
_cell_length_a   5.24448187
_cell_length_b   6.37067377
_cell_length_c   6.37067452
_cell_angle_alpha   70.08638966
_cell_angle_beta   65.69391473
_cell_angle_gamma   65.69390200
_symmetry_Int_Tables_number   1
_chemical_formula_structural   CsS
_chemical_formula_sum   'Cs2 S2'
_cell_volume   172.99266992
_cell_formula_units_Z   2
loop_
 _symmetry_equiv_pos_site_id
 _symmetry_equiv_pos_as_xyz
  1  'x, y, z'
loop_
 _atom_site_type_symbol
 _atom_site_label
 _atom_site_symmetry_multiplicity
 _atom_site_fract_x
 _atom_site_fract_y
 _atom_site_fract_z
 _atom_site_occupancy
  Cs  Cs0  1  0.73062419  0.76937581  0.76937581  1
  Cs  Cs1  1  0.26937581  0.23062419  0.23062419  1
  S  S2  1  -0.00000000  0.14417625  0.85582375  1
  S  S3  1  0.00000000  0.85582375  0.14417625  1
