# generated using pymatgen
data_Nd2Se3
_symmetry_space_group_name_H-M   'P 1'
_cell_length_a   23.21959153
_cell_length_b   8.94112552
_cell_length_c   8.94112734
_cell_angle_alpha   89.98698798
_cell_angle_beta   54.71454768
_cell_angle_gamma   54.71455216
_symmetry_Int_Tables_number   1
_chemical_formula_structural   Nd2Se3
_chemical_formula_sum   'Nd16 Se24'
_cell_volume   1070.84165575
_cell_formula_units_Z   8
loop_
 _symmetry_equiv_pos_site_id
 _symmetry_equiv_pos_as_xyz
  1  'x, y, z'
loop_
 _atom_site_type_symbol
 _atom_site_label
 _atom_site_symmetry_multiplicity
 _atom_site_fract_x
 _atom_site_fract_y
 _atom_site_fract_z
 _atom_site_occupancy
  Nd  Nd0  1  0.99553086  0.39207152  0.24834230  1
  Nd  Nd1  1  0.99549941  0.12141099  0.76514810  1
  Nd  Nd2  1  0.08424306  0.62371806  0.37365696  1
  Nd  Nd3  1  0.16675122  0.24986270  0.63091219  1
  Nd  Nd4  1  0.24909700  0.87632871  0.12636384  1
  Nd  Nd5  1  0.33781097  0.37869973  0.25183755  1
  Nd  Nd6  1  0.16663438  0.75001968  0.86904515  1
  Nd  Nd7  1  0.33782089  0.10777600  0.73483770  1
  Nd  Nd8  1  0.49549941  0.26514710  0.62141099  1
  Nd  Nd9  1  0.58424206  0.87365796  0.12371806  1
  Nd  Nd10  1  0.66663438  0.36904515  0.25001968  1
  Nd  Nd11  1  0.66675122  0.13091219  0.74986270  1
  Nd  Nd12  1  0.49553086  0.74834230  0.89207052  1
  Nd  Nd13  1  0.74909700  0.62636384  0.37632871  1
  Nd  Nd14  1  0.83782089  0.23483770  0.60777600  1
  Nd  Nd15  1  0.83781097  0.75183755  0.87870073  1
  Se  Se16  1  0.12570501  0.48904770  0.99292921  1
  Se  Se17  1  0.04965447  0.35214250  0.49583966  1
  Se  Se18  1  0.28352437  0.14820252  0.14490399  1
  Se  Se19  1  0.04978565  0.99920005  0.35485805  1
  Se  Se20  1  0.28349870  0.50112848  0.00480223  1
  Se  Se21  1  0.20756756  0.01093368  0.86982980  1
  Se  Se22  1  0.12566127  0.63380507  0.63003443  1
  Se  Se23  1  0.20765202  0.86614530  0.50716743  1
  Se  Se24  1  0.44962920  0.49605822  -0.00110290  1
  Se  Se25  1  0.38384209  0.34737414  0.50394846  1
  Se  Se26  1  0.62566127  0.13003443  0.13380507  1
  Se  Se27  1  0.38399078  0.00037107  0.34467116  1
  Se  Se28  1  0.62570501  0.49292921  0.98904770  1
  Se  Se29  1  0.44943310  0.65532456  0.65234402  1
  Se  Se30  1  0.54965547  0.99583966  0.85214250  1
  Se  Se31  1  0.54978565  0.85485705  0.49920005  1
  Se  Se32  1  0.78349870  0.50480223  0.00112848  1
  Se  Se33  1  0.70756756  0.36982980  0.51093368  1
  Se  Se34  1  0.94943310  0.15234402  0.15532456  1
  Se  Se35  1  0.70765202  0.00716743  0.36614530  1
  Se  Se36  1  0.94962920  0.49889710  0.99605822  1
  Se  Se37  1  0.88384209  0.00394946  0.84737514  1
  Se  Se38  1  0.78352437  0.64490499  0.64820252  1
  Se  Se39  1  0.88399078  0.84467216  0.50037107  1
