# generated using pymatgen
data_Na3As7
_symmetry_space_group_name_H-M   'P 1'
_cell_length_a   10.96294593
_cell_length_b   14.28311989
_cell_length_c   15.55052342
_cell_angle_alpha   64.02870087
_cell_angle_beta   90.00000000
_cell_angle_gamma   90.00000000
_symmetry_Int_Tables_number   1
_chemical_formula_structural   Na3As7
_chemical_formula_sum   'Na24 As56'
_cell_volume   2189.07978532
_cell_formula_units_Z   8
loop_
 _symmetry_equiv_pos_site_id
 _symmetry_equiv_pos_as_xyz
  1  'x, y, z'
loop_
 _atom_site_type_symbol
 _atom_site_label
 _atom_site_symmetry_multiplicity
 _atom_site_fract_x
 _atom_site_fract_y
 _atom_site_fract_z
 _atom_site_occupancy
  Na  Na0  1  0.29425016  0.43297313  0.71309672  1
  Na  Na1  1  0.79425016  0.06702687  0.28690328  1
  Na  Na2  1  0.70574984  0.56702687  0.28690328  1
  Na  Na3  1  0.20574984  0.93297313  0.71309672  1
  Na  Na4  1  0.80318552  0.65123632  0.79013673  1
  Na  Na5  1  0.30318552  0.84876368  0.20986327  1
  Na  Na6  1  0.19681448  0.34876368  0.20986327  1
  Na  Na7  1  0.69681448  0.15123632  0.79013673  1
  Na  Na8  1  0.44200527  0.63145143  0.06921528  1
  Na  Na9  1  0.94200527  0.86854857  0.93078472  1
  Na  Na10  1  0.55799473  0.36854857  0.93078472  1
  Na  Na11  1  0.05799473  0.13145143  0.06921528  1
  Na  Na12  1  0.43463849  0.30252143  0.56310731  1
  Na  Na13  1  0.93463849  0.19747857  0.43689269  1
  Na  Na14  1  0.56536151  0.69747857  0.43689269  1
  Na  Na15  1  0.06536151  0.80252143  0.56310731  1
  Na  Na16  1  0.45766481  0.97992706  0.89733285  1
  Na  Na17  1  0.95766481  0.52007294  0.10266715  1
  Na  Na18  1  0.54233519  0.02007294  0.10266715  1
  Na  Na19  1  0.04233519  0.47992706  0.89733285  1
  Na  Na20  1  0.53627482  0.87230979  0.60254085  1
  Na  Na21  1  0.03627482  0.62769021  0.39745915  1
  Na  Na22  1  0.46372518  0.12769021  0.39745915  1
  Na  Na23  1  0.96372518  0.37230979  0.60254085  1
  As  As24  1  0.66040389  0.68044689  0.62083862  1
  As  As25  1  0.21887091  0.45950192  0.51607038  1
  As  As26  1  0.28112909  0.95950192  0.51607038  1
  As  As27  1  0.78112909  0.54049808  0.48392962  1
  As  As28  1  0.34645506  0.20800485  0.94153001  1
  As  As29  1  0.84645506  0.29199515  0.05846999  1
  As  As30  1  0.65354494  0.79199515  0.05846999  1
  As  As31  1  0.15354494  0.70800485  0.94153001  1
  As  As32  1  0.07222670  0.20588634  0.80597397  1
  As  As33  1  0.57222670  0.29411366  0.19402603  1
  As  As34  1  0.92777330  0.79411366  0.19402603  1
  As  As35  1  0.42777330  0.70588634  0.80597397  1
  As  As36  1  0.25387706  0.14983670  0.74118294  1
  As  As37  1  0.75387706  0.35016330  0.25881706  1
  As  As38  1  0.74612294  0.85016330  0.25881706  1
  As  As39  1  0.24612294  0.64983670  0.74118294  1
  As  As40  1  0.71887091  0.04049808  0.48392962  1
  As  As41  1  0.65342463  0.47527138  0.10634461  1
  As  As42  1  0.84657537  0.97527138  0.10634461  1
  As  As43  1  0.34657537  0.52472862  0.89365539  1
  As  As44  1  0.15654413  0.29835278  0.88640165  1
  As  As45  1  0.65654413  0.20164722  0.11359835  1
  As  As46  1  0.84345587  0.70164722  0.11359835  1
  As  As47  1  0.34345587  0.79835278  0.88640165  1
  As  As48  1  0.42517279  0.21442472  0.79282744  1
  As  As49  1  0.92517279  0.28557528  0.20717256  1
  As  As50  1  0.57482721  0.78557528  0.20717256  1
  As  As51  1  0.07482721  0.71442472  0.79282744  1
  As  As52  1  0.27330944  0.02929016  0.01889740  1
  As  As53  1  0.77330944  0.47070984  0.98110260  1
  As  As54  1  0.72669056  0.97070984  0.98110260  1
  As  As55  1  0.22669056  0.52929016  0.01889740  1
  As  As56  1  0.91450504  0.48771391  0.71953418  1
  As  As57  1  0.41450504  0.01228609  0.28046582  1
  As  As58  1  0.08549496  0.51228609  0.28046582  1
  As  As59  1  0.58549496  0.98771391  0.71953418  1
  As  As60  1  0.15342463  0.02472862  0.89365539  1
  As  As61  1  0.16040389  0.81955311  0.37916138  1
  As  As62  1  0.33959611  0.31955311  0.37916138  1
  As  As63  1  0.83959611  0.18044689  0.62083862  1
  As  As64  1  0.64498556  0.42184272  0.59755955  1
  As  As65  1  0.14498556  0.07815728  0.40244045  1
  As  As66  1  0.35501444  0.57815728  0.40244045  1
  As  As67  1  0.85501444  0.92184272  0.59755955  1
  As  As68  1  0.73416993  0.38613280  0.75728384  1
  As  As69  1  0.23416993  0.11386720  0.24271616  1
  As  As70  1  0.26583007  0.61386720  0.24271616  1
  As  As71  1  0.76583007  0.88613280  0.75728384  1
  As  As72  1  0.56291417  0.51607623  0.68805595  1
  As  As73  1  0.06291417  0.98392377  0.31194405  1
  As  As74  1  0.43708583  0.48392377  0.31194405  1
  As  As75  1  0.93708583  0.01607623  0.68805595  1
  As  As76  1  0.85195462  0.63435787  0.57300205  1
  As  As77  1  0.35195462  0.86564213  0.42699795  1
  As  As78  1  0.14804538  0.36564213  0.42699795  1
  As  As79  1  0.64804538  0.13435787  0.57300205  1
