# generated using pymatgen
data_Pr2Se3
_symmetry_space_group_name_H-M   'P 1'
_cell_length_a   23.38628855
_cell_length_b   9.00659711
_cell_length_c   9.00654919
_cell_angle_alpha   90.00489026
_cell_angle_beta   54.71618472
_cell_angle_gamma   54.71616811
_symmetry_Int_Tables_number   1
_chemical_formula_structural   Pr2Se3
_chemical_formula_sum   'Pr16 Se24'
_cell_volume   1094.12151824
_cell_formula_units_Z   8
loop_
 _symmetry_equiv_pos_site_id
 _symmetry_equiv_pos_as_xyz
  1  'x, y, z'
loop_
 _atom_site_type_symbol
 _atom_site_label
 _atom_site_symmetry_multiplicity
 _atom_site_fract_x
 _atom_site_fract_y
 _atom_site_fract_z
 _atom_site_occupancy
  Pr  Pr0  1  0.08425751  0.62361945  0.37352223  1
  Pr  Pr1  1  0.16663146  0.25006007  0.63077782  1
  Pr  Pr2  1  0.33770505  0.37888480  0.25166629  1
  Pr  Pr3  1  0.24907265  0.87637626  0.12633771  1
  Pr  Pr4  1  0.33778435  0.10775288  0.73524760  1
  Pr  Pr5  1  0.16664348  0.75000768  0.86923546  1
  Pr  Pr6  1  0.49559638  0.26471519  0.62108268  1
  Pr  Pr7  1  0.66664348  0.36923546  0.25000768  1
  Pr  Pr8  1  0.58425751  0.87352223  0.12361945  1
  Pr  Pr9  1  0.66663046  0.13077782  0.75006007  1
  Pr  Pr10  1  0.49558751  0.74853564  0.89219814  1
  Pr  Pr11  1  0.74907265  0.62633771  0.37637626  1
  Pr  Pr12  1  0.83778435  0.23524760  0.60775188  1
  Pr  Pr13  1  0.99558851  0.39219714  0.24853464  1
  Pr  Pr14  1  0.99559738  0.12108368  0.76471519  1
  Pr  Pr15  1  0.83770505  0.75166629  0.87888380  1
  Se  Se16  1  0.05008993  0.99911442  0.35381407  1
  Se  Se17  1  0.12547845  0.48929550  0.99277451  1
  Se  Se18  1  0.04994878  0.35091812  0.49625831  1
  Se  Se19  1  0.28316619  0.14948637  0.14656463  1
  Se  Se20  1  0.28329126  0.50068251  0.00391756  1
  Se  Se21  1  0.12521519  0.63466767  0.63117354  1
  Se  Se22  1  0.38418516  0.00095673  0.34393965  1
  Se  Se23  1  0.20798340  0.86525997  0.50692517  1
  Se  Se24  1  0.44921566  0.49632408  -0.00130252  1
  Se  Se25  1  0.38417643  0.34617760  0.50365596  1
  Se  Se26  1  0.20801125  0.01076447  0.86899360  1
  Se  Se27  1  0.62521419  0.13117454  0.13466767  1
  Se  Se28  1  0.62547845  0.49277351  0.98929550  1
  Se  Se29  1  0.44929593  0.65602536  0.65359981  1
  Se  Se30  1  0.70798340  0.00692517  0.36525897  1
  Se  Se31  1  0.55008993  0.85381407  0.49911442  1
  Se  Se32  1  0.78329126  0.50391856  0.00068251  1
  Se  Se33  1  0.70801125  0.36899260  0.51076347  1
  Se  Se34  1  0.54994878  0.99625831  0.85091812  1
  Se  Se35  1  0.94929593  0.15359981  0.15602636  1
  Se  Se36  1  0.94921566  0.49869648  0.99632408  1
  Se  Se37  1  0.78316619  0.64656363  0.64948637  1
  Se  Se38  1  0.88418516  0.84393865  0.50095673  1
  Se  Se39  1  0.88417643  0.00365596  0.84617760  1
