# generated using pymatgen
data_La2Te3
_symmetry_space_group_name_H-M   'P 1'
_cell_length_a   16.12645938
_cell_length_b   16.12669068
_cell_length_c   16.12654648
_cell_angle_alpha   144.97861703
_cell_angle_beta   144.97757230
_cell_angle_gamma   50.36734898
_symmetry_Int_Tables_number   1
_chemical_formula_structural   La2Te3
_chemical_formula_sum   'La16 Te24'
_cell_volume   1374.42002790
_cell_formula_units_Z   8
loop_
 _symmetry_equiv_pos_site_id
 _symmetry_equiv_pos_as_xyz
  1  'x, y, z'
loop_
 _atom_site_type_symbol
 _atom_site_label
 _atom_site_symmetry_multiplicity
 _atom_site_fract_x
 _atom_site_fract_y
 _atom_site_fract_z
 _atom_site_occupancy
  La  La0  1  0.20344100  0.32796011  0.61121579  1
  La  La1  1  0.41706951  0.91707338  0.50001540  1
  La  La2  1  0.99424200  0.62499431  0.86924373  1
  La  La3  1  0.03326075  0.92204246  0.37548378  1
  La  La4  1  0.33295312  0.33294567  0.00000253  1
  La  La5  1  0.54657425  0.65777828  0.62452929  1
  La  La6  1  0.75588671  0.12499817  0.13088400  1
  La  La7  1  0.34220692  0.96675720  0.88878415  1
  La  La8  1  0.37498247  0.24415170  0.36913983  1
  La  La9  1  0.66704920  0.66706197  -0.00001038  1
  La  La10  1  0.87493940  0.00575846  0.63070012  1
  La  La11  1  0.07790119  0.45339501  0.11111383  1
  La  La12  1  0.08293317  0.58293040  0.49998363  1
  La  La13  1  0.67202318  0.28325284  0.87545425  1
  La  La14  1  0.71681597  0.59230829  0.38891292  1
  La  La15  1  0.40773501  0.79656175  0.12447846  1
  Te  Te16  1  0.50543653  0.25832959  0.89775864  1
  Te  Te17  1  0.71696804  0.82309378  0.74694912  1
  Te  Te18  1  0.36060184  0.60768969  0.10227592  1
  Te  Te19  1  0.24455772  0.64229409  0.25286893  1
  Te  Te20  1  0.38942689  0.99168207  0.74711791  1
  Te  Te21  1  0.07615622  0.97001582  0.25307426  1
  Te  Te22  1  0.84542065  0.59127941  0.90455572  1
  Te  Te23  1  0.03305050  0.27996962  0.60613007  1
  Te  Te24  1  0.05912289  0.15457358  0.74585450  1
  Te  Te25  1  0.68673331  0.94086241  0.09544563  1
  Te  Te26  1  0.67386103  0.42694751  0.39388171  1
  Te  Te27  1  0.57307275  0.96695185  0.24693176  1
  Te  Te28  1  0.71999821  0.32613852  0.75304802  1
  Te  Te29  1  0.40871867  0.31325118  0.25413744  1
  Te  Te30  1  0.17690379  0.92385933  0.89385769  1
  Te  Te31  1  0.35768235  0.61058918  0.60226222  1
  Te  Te32  1  0.39231773  0.49457662  0.75289567  1
  Te  Te33  1  0.02995850  0.28304490  0.10611218  1
  Te  Te34  1  0.00830800  0.75544211  0.39774415  1
  Te  Te35  1  0.90458210  0.30912667  0.24587393  1
  Te  Te36  1  0.06328681  0.65873737  0.75418661  1
  Te  Te37  1  0.74166918  0.63941760  0.24710160  1
  Te  Te38  1  0.69088884  0.93676713  0.59549574  1
  Te  Te39  1  0.34126360  0.09538696  0.40450827  1
