# generated using pymatgen
data_La2Se3
_symmetry_space_group_name_H-M   'P 1'
_cell_length_a   15.07542665
_cell_length_b   15.07541738
_cell_length_c   15.07551530
_cell_angle_alpha   144.82823882
_cell_angle_beta   144.82982271
_cell_angle_gamma   50.58971060
_symmetry_Int_Tables_number   1
_chemical_formula_structural   La2Se3
_chemical_formula_sum   'La16 Se24'
_cell_volume   1131.04720007
_cell_formula_units_Z   8
loop_
 _symmetry_equiv_pos_site_id
 _symmetry_equiv_pos_as_xyz
  1  'x, y, z'
loop_
 _atom_site_type_symbol
 _atom_site_label
 _atom_site_symmetry_multiplicity
 _atom_site_fract_x
 _atom_site_fract_y
 _atom_site_fract_z
 _atom_site_occupancy
  La  La0  1  0.20240006  0.32341746  0.60398888  1
  La  La1  1  0.41561218  0.91560022  0.49996355  1
  La  La2  1  0.99500935  0.62501578  0.87004729  1
  La  La3  1  0.33438341  0.33436639  0.00001366  1
  La  La4  1  0.03066911  0.92676855  0.37925900  1
  La  La5  1  0.75499494  0.12499257  0.13001948  1
  La  La6  1  0.54753222  0.65142636  0.62077665  1
  La  La7  1  0.34864933  0.96930768  0.89613529  1
  La  La8  1  0.37500722  0.24501365  0.36999008  1
  La  La9  1  0.66560396  0.66559757  -0.00000327  1
  La  La10  1  0.87501698  0.00501253  0.63000159  1
  La  La11  1  0.07325917  0.45250088  0.10391986  1
  La  La12  1  0.08431384  0.58436736  0.49993910  1
  La  La13  1  0.67655946  0.28055156  0.87897927  1
  La  La14  1  0.71938648  0.59843063  0.39597961  1
  La  La15  1  0.40155086  0.79752654  0.12092749  1
  Se  Se16  1  0.71344695  0.82276661  0.74590272  1
  Se  Se17  1  0.36304004  0.60961830  0.10586692  1
  Se  Se18  1  0.50371474  0.25716097  0.89408987  1
  Se  Se19  1  0.24624549  0.64027074  0.25323388  1
  Se  Se20  1  0.38707147  0.99299879  0.74678393  1
  Se  Se21  1  0.07687565  0.96755177  0.25412798  1
  Se  Se22  1  0.67298670  0.42697395  0.39038140  1
  Se  Se23  1  0.03662435  0.28264051  0.60967251  1
  Se  Se24  1  0.06206462  0.15384344  0.74886578  1
  Se  Se25  1  0.68680569  0.93796722  0.09180728  1
  Se  Se26  1  0.57298857  0.96341001  0.24600140  1
  Se  Se27  1  0.84615828  0.59498509  0.90818325  1
  Se  Se28  1  0.71737799  0.32699619  0.75397929  1
  Se  Se29  1  0.00695323  0.75378552  0.39399440  1
  Se  Se30  1  0.40503543  0.31320269  0.25119733  1
  Se  Se31  1  0.35978394  0.61295537  0.60600102  1
  Se  Se32  1  0.39038717  0.49624608  0.75341666  1
  Se  Se33  1  0.03244614  0.28657601  0.10931643  1
  Se  Se34  1  0.90357167  0.31206375  0.24860556  1
  Se  Se35  1  0.17725008  0.92314819  0.89069126  1
  Se  Se36  1  0.06343362  0.65497387  0.75135143  1
  Se  Se37  1  0.74280778  0.63697642  0.24657878  1
  Se  Se38  1  0.34504756  0.09638713  0.40844039  1
  Se  Se39  1  0.68793529  0.93660566  0.59157200  1
