# generated using pymatgen
data_NbCl4
_symmetry_space_group_name_H-M   'P 1'
_cell_length_a   6.86210889
_cell_length_b   7.00637884
_cell_length_c   7.21182059
_cell_angle_alpha   72.31252328
_cell_angle_beta   61.59153380
_cell_angle_gamma   60.67884700
_symmetry_Int_Tables_number   1
_chemical_formula_structural   NbCl4
_chemical_formula_sum   'Nb2 Cl8'
_cell_volume   264.77104460
_cell_formula_units_Z   2
loop_
 _symmetry_equiv_pos_site_id
 _symmetry_equiv_pos_as_xyz
  1  'x, y, z'
loop_
 _atom_site_type_symbol
 _atom_site_label
 _atom_site_symmetry_multiplicity
 _atom_site_fract_x
 _atom_site_fract_y
 _atom_site_fract_z
 _atom_site_occupancy
  Nb  Nb0  1  0.21920439  0.00000000  0.00000000  1
  Nb  Nb1  1  0.78079561  -0.00000000  -0.00000000  1
  Cl  Cl2  1  0.68124680  0.79258547  0.84492093  1
  Cl  Cl3  1  0.31875320  0.20741453  0.15507907  1
  Cl  Cl4  1  0.79168346  0.23863029  0.17800178  1
  Cl  Cl5  1  0.20831654  0.76136971  0.82199822  1
  Cl  Cl6  1  0.73202822  0.75020760  0.29719505  1
  Cl  Cl7  1  0.77942887  0.24979240  0.70280495  1
  Cl  Cl8  1  0.26797178  0.24979240  0.70280495  1
  Cl  Cl9  1  0.22057113  0.75020760  0.29719505  1
