# generated using pymatgen
data_Na3P11
_symmetry_space_group_name_H-M   'P 1'
_cell_length_a   9.80796106
_cell_length_b   10.44827736
_cell_length_c   12.45080615
_cell_angle_alpha   90.00000000
_cell_angle_beta   90.00000000
_cell_angle_gamma   90.00000000
_symmetry_Int_Tables_number   1
_chemical_formula_structural   Na3P11
_chemical_formula_sum   'Na12 P44'
_cell_volume   1275.91251503
_cell_formula_units_Z   4
loop_
 _symmetry_equiv_pos_site_id
 _symmetry_equiv_pos_as_xyz
  1  'x, y, z'
loop_
 _atom_site_type_symbol
 _atom_site_label
 _atom_site_symmetry_multiplicity
 _atom_site_fract_x
 _atom_site_fract_y
 _atom_site_fract_z
 _atom_site_occupancy
  Na  Na0  1  0.00000000  0.75000000  0.25351669  1
  Na  Na1  1  0.50000000  0.25000000  0.24648331  1
  Na  Na2  1  0.00000000  0.25000000  0.74648331  1
  Na  Na3  1  0.50000000  0.75000000  0.75351669  1
  Na  Na4  1  0.75608933  0.07787499  0.00456294  1
  Na  Na5  1  0.25608933  0.92212501  0.49543706  1
  Na  Na6  1  0.74391067  0.57787499  0.49543706  1
  Na  Na7  1  0.24391067  0.42212501  0.00456294  1
  Na  Na8  1  0.24391067  0.92212501  0.99543706  1
  Na  Na9  1  0.74391067  0.07787499  0.50456294  1
  Na  Na10  1  0.25608933  0.42212501  0.50456294  1
  Na  Na11  1  0.75608933  0.57787499  0.99543706  1
  P  P12  1  0.00000000  0.75000000  0.49621232  1
  P  P13  1  0.50000000  0.25000000  0.00378768  1
  P  P14  1  0.00000000  0.25000000  0.50378768  1
  P  P15  1  0.50000000  0.75000000  0.99621232  1
  P  P16  1  0.69207632  0.26011614  0.76713127  1
  P  P17  1  0.19207632  0.73988386  0.73286873  1
  P  P18  1  0.80792368  0.76011614  0.73286873  1
  P  P19  1  0.30792368  0.23988386  0.76713127  1
  P  P20  1  0.30792368  0.73988386  0.23286873  1
  P  P21  1  0.80792368  0.26011614  0.26713127  1
  P  P22  1  0.19207632  0.23988386  0.26713127  1
  P  P23  1  0.69207632  0.76011614  0.23286873  1
  P  P24  1  0.60077480  0.06622823  0.79884139  1
  P  P25  1  0.10077480  0.93377177  0.70115861  1
  P  P26  1  0.89922520  0.56622823  0.70115861  1
  P  P27  1  0.39922520  0.43377177  0.79884139  1
  P  P28  1  0.39922520  0.93377177  0.20115861  1
  P  P29  1  0.89922520  0.06622823  0.29884139  1
  P  P30  1  0.10077480  0.43377177  0.29884139  1
  P  P31  1  0.60077480  0.56622823  0.20115861  1
  P  P32  1  0.58505900  0.38216305  0.88800243  1
  P  P33  1  0.08505900  0.61783695  0.61199757  1
  P  P34  1  0.91494100  0.88216305  0.61199757  1
  P  P35  1  0.41494100  0.11783695  0.88800243  1
  P  P36  1  0.41494100  0.61783695  0.11199757  1
  P  P37  1  0.91494100  0.38216305  0.38800243  1
  P  P38  1  0.08505900  0.11783695  0.38800243  1
  P  P39  1  0.58505900  0.88216305  0.11199757  1
  P  P40  1  0.58798071  0.31583044  0.61336240  1
  P  P41  1  0.08797971  0.68416956  0.88663760  1
  P  P42  1  0.91201929  0.81583044  0.88663760  1
  P  P43  1  0.41202029  0.18416956  0.61336240  1
  P  P44  1  0.41202029  0.68416956  0.38663760  1
  P  P45  1  0.91201929  0.31583044  0.11336240  1
  P  P46  1  0.08797971  0.18416956  0.11336240  1
  P  P47  1  0.58798071  0.81583044  0.38663760  1
  P  P48  1  0.01920231  0.99345832  0.85420714  1
  P  P49  1  0.51920231  0.00654168  0.64579286  1
  P  P50  1  0.48079769  0.49345832  0.64579286  1
  P  P51  1  0.98079769  0.50654168  0.85420714  1
  P  P52  1  0.98079769  0.00654168  0.14579286  1
  P  P53  1  0.48079769  0.99345832  0.35420714  1
  P  P54  1  0.51920231  0.50654168  0.35420714  1
  P  P55  1  0.01920231  0.49345832  0.14579286  1
