# generated using pymatgen
data_AsS
_symmetry_space_group_name_H-M   'P 1'
_cell_length_a   6.77985421
_cell_length_b   9.54803928
_cell_length_c   14.07691232
_cell_angle_alpha   90.00000000
_cell_angle_beta   90.00000000
_cell_angle_gamma   106.91071176
_symmetry_Int_Tables_number   1
_chemical_formula_structural   AsS
_chemical_formula_sum   'As16 S16'
_cell_volume   871.85570481
_cell_formula_units_Z   16
loop_
 _symmetry_equiv_pos_site_id
 _symmetry_equiv_pos_as_xyz
  1  'x, y, z'
loop_
 _atom_site_type_symbol
 _atom_site_label
 _atom_site_symmetry_multiplicity
 _atom_site_fract_x
 _atom_site_fract_y
 _atom_site_fract_z
 _atom_site_occupancy
  As  As0  1  0.76925390  0.12337530  0.98401379  1
  As  As1  1  0.73074610  0.37662470  0.48401379  1
  As  As2  1  0.23074610  0.87662470  0.01598621  1
  As  As3  1  0.26925390  0.62337530  0.51598621  1
  As  As4  1  0.86552441  0.42077327  0.13877807  1
  As  As5  1  0.63447559  0.07922673  0.63877807  1
  As  As6  1  0.13447559  0.57922673  0.86122193  1
  As  As7  1  0.36552441  0.92077327  0.36122193  1
  As  As8  1  0.17858619  0.31642480  0.12632573  1
  As  As9  1  0.32141381  0.18357520  0.62632573  1
  As  As10  1  0.82141381  0.68357520  0.87367427  1
  As  As11  1  0.67858619  0.81642480  0.37367427  1
  As  As12  1  0.72028248  0.04269943  0.16142819  1
  As  As13  1  0.77971752  0.45730057  0.66142819  1
  As  As14  1  0.27971752  0.95730057  0.83857181  1
  As  As15  1  0.22028248  0.54269943  0.33857181  1
  S  S16  1  0.71290632  0.34260763  0.99912820  1
  S  S17  1  0.78709368  0.15739237  0.49912820  1
  S  S18  1  0.28709368  0.65739237  0.00087180  1
  S  S19  1  0.21290632  0.84260763  0.50087180  1
  S  S20  1  0.11328722  0.21350460  0.98175808  1
  S  S21  1  0.38671278  0.28649540  0.48175808  1
  S  S22  1  0.88671278  0.78649540  0.01824192  1
  S  S23  1  0.61328722  0.71350460  0.51824192  1
  S  S24  1  0.65375142  0.23979966  0.22348007  1
  S  S25  1  0.84624858  0.26020034  0.72348007  1
  S  S26  1  0.34624858  0.76020034  0.77651993  1
  S  S27  1  0.15375142  0.73979966  0.27651993  1
  S  S28  1  0.05076918  0.10670284  0.20633271  1
  S  S29  1  0.44923082  0.39329716  0.70633271  1
  S  S30  1  0.94923082  0.89329716  0.79366729  1
  S  S31  1  0.55076918  0.60670284  0.29366729  1
