# generated using pymatgen
data_Cs2Te
_symmetry_space_group_name_H-M   'P 1'
_cell_length_a   5.82121553
_cell_length_b   9.44850141
_cell_length_c   11.65246224
_cell_angle_alpha   90.00000000
_cell_angle_beta   90.00000000
_cell_angle_gamma   90.00000000
_symmetry_Int_Tables_number   1
_chemical_formula_structural   Cs2Te
_chemical_formula_sum   'Cs8 Te4'
_cell_volume   640.90596816
_cell_formula_units_Z   4
loop_
 _symmetry_equiv_pos_site_id
 _symmetry_equiv_pos_as_xyz
  1  'x, y, z'
loop_
 _atom_site_type_symbol
 _atom_site_label
 _atom_site_symmetry_multiplicity
 _atom_site_fract_x
 _atom_site_fract_y
 _atom_site_fract_z
 _atom_site_occupancy
  Cs  Cs0  1  0.75000000  0.46834924  0.67581068  1
  Cs  Cs1  1  0.25000000  0.03165076  0.17581068  1
  Cs  Cs2  1  0.75000000  0.85230924  0.42795166  1
  Cs  Cs3  1  0.25000000  0.14769076  0.57204834  1
  Cs  Cs4  1  0.25000000  0.53165076  0.32418832  1
  Cs  Cs5  1  0.25000000  0.64769076  0.92795166  1
  Cs  Cs6  1  0.75000000  0.35230924  0.07204834  1
  Cs  Cs7  1  0.75000000  0.96834924  0.82418932  1
  Te  Te8  1  0.25000000  0.24541893  0.88399870  1
  Te  Te9  1  0.75000000  0.25458007  0.38399870  1
  Te  Te10  1  0.25000000  0.74541893  0.61600130  1
  Te  Te11  1  0.75000000  0.75458107  0.11600130  1
