# generated using pymatgen
data_CuI
_symmetry_space_group_name_H-M   'P 1'
_cell_length_a   4.12861160
_cell_length_b   4.12862427
_cell_length_c   7.47810604
_cell_angle_alpha   89.99107309
_cell_angle_beta   90.00938773
_cell_angle_gamma   119.98448271
_symmetry_Int_Tables_number   1
_chemical_formula_structural   CuI
_chemical_formula_sum   'Cu2 I2'
_cell_volume   110.40773980
_cell_formula_units_Z   2
loop_
 _symmetry_equiv_pos_site_id
 _symmetry_equiv_pos_as_xyz
  1  'x, y, z'
loop_
 _atom_site_type_symbol
 _atom_site_label
 _atom_site_symmetry_multiplicity
 _atom_site_fract_x
 _atom_site_fract_y
 _atom_site_fract_z
 _atom_site_occupancy
  Cu  Cu0  1  0.33333517  0.66666154  0.84792324  1
  Cu  Cu1  1  0.00000126  -0.00000323  0.66801835  1
  I  I2  1  0.00002352  -0.00001753  0.01271905  1
  I  I3  1  0.33330605  0.66669322  0.50333936  1
