# generated using pymatgen
data_Cs3As7
_symmetry_space_group_name_H-M   'P 1'
_cell_length_a   10.33724530
_cell_length_b   13.27729846
_cell_length_c   22.17107667
_cell_angle_alpha   90.00000000
_cell_angle_beta   90.00000000
_cell_angle_gamma   90.00000000
_symmetry_Int_Tables_number   1
_chemical_formula_structural   Cs3As7
_chemical_formula_sum   'Cs24 As56'
_cell_volume   3042.99559544
_cell_formula_units_Z   8
loop_
 _symmetry_equiv_pos_site_id
 _symmetry_equiv_pos_as_xyz
  1  'x, y, z'
loop_
 _atom_site_type_symbol
 _atom_site_label
 _atom_site_symmetry_multiplicity
 _atom_site_fract_x
 _atom_site_fract_y
 _atom_site_fract_z
 _atom_site_occupancy
  Cs  Cs0  1  0.69808090  0.97302448  0.73179116  1
  Cs  Cs1  1  0.30191910  0.47302448  0.76820884  1
  Cs  Cs2  1  0.40246175  0.22577368  0.62118453  1
  Cs  Cs3  1  0.19808090  0.52697552  0.26820884  1
  Cs  Cs4  1  0.23698960  0.95134034  0.47867260  1
  Cs  Cs5  1  0.26301040  0.45134034  0.47867260  1
  Cs  Cs6  1  0.90246175  0.22577368  0.87881547  1
  Cs  Cs7  1  0.59753825  0.72577368  0.87881547  1
  Cs  Cs8  1  0.30191910  0.02697552  0.26820884  1
  Cs  Cs9  1  0.76301040  0.45134034  0.02132740  1
  Cs  Cs10  1  0.26301040  0.04865966  0.97867260  1
  Cs  Cs11  1  0.69808090  0.52697552  0.23179116  1
  Cs  Cs12  1  0.80191910  0.47302448  0.73179116  1
  Cs  Cs13  1  0.09753825  0.77422632  0.12118453  1
  Cs  Cs14  1  0.40246175  0.27422632  0.12118453  1
  Cs  Cs15  1  0.90246175  0.27422632  0.37881547  1
  Cs  Cs16  1  0.59753825  0.77422632  0.37881547  1
  Cs  Cs17  1  0.19808090  0.97302448  0.76820884  1
  Cs  Cs18  1  0.73698960  0.95134034  0.02132740  1
  Cs  Cs19  1  0.09753825  0.72577368  0.62118453  1
  Cs  Cs20  1  0.80191910  0.02697552  0.23179116  1
  Cs  Cs21  1  0.23698960  0.54865966  0.97867260  1
  Cs  Cs22  1  0.73698960  0.54865966  0.52132740  1
  Cs  Cs23  1  0.76301040  0.04865966  0.52132740  1
  As  As24  1  0.59190418  0.08870523  0.36669708  1
  As  As25  1  0.92070900  0.82173118  0.45720727  1
  As  As26  1  0.03244167  0.83663094  0.94824312  1
  As  As27  1  0.23279624  0.70568256  0.39774767  1
  As  As28  1  0.40809582  0.91129477  0.63330292  1
  As  As29  1  0.57929100  0.17826882  0.95720727  1
  As  As30  1  0.05275256  0.37954945  0.14260634  1
  As  As31  1  0.85463875  0.20371499  0.68393568  1
  As  As32  1  0.44724744  0.87954945  0.14260634  1
  As  As33  1  0.42771446  0.78032695  0.70542160  1
  As  As34  1  0.94724744  0.87954945  0.35739366  1
  As  As35  1  0.64536125  0.79628501  0.18393568  1
  As  As36  1  0.57228554  0.28032695  0.79457840  1
  As  As37  1  0.76720476  0.20568256  0.10225233  1
  As  As38  1  0.07228554  0.21967305  0.20542160  1
  As  As39  1  0.44724744  0.62045055  0.64260634  1
  As  As40  1  0.92771446  0.71967305  0.29457840  1
  As  As41  1  0.90809582  0.91129477  0.86669708  1
  As  As42  1  0.14536125  0.79628501  0.31606432  1
  As  As43  1  0.64536125  0.70371499  0.68393568  1
  As  As44  1  0.14536125  0.70371499  0.81606432  1
  As  As45  1  0.07929100  0.17826882  0.54279273  1
  As  As46  1  0.53244167  0.83663094  0.55175688  1
  As  As47  1  0.73279524  0.70568256  0.10225233  1
  As  As48  1  0.94724744  0.62045055  0.85739366  1
  As  As49  1  0.96755833  0.33663094  0.55175688  1
  As  As50  1  0.05275256  0.12045055  0.64260634  1
  As  As51  1  0.09190418  0.41129477  0.63330292  1
  As  As52  1  0.59190418  0.41129477  0.86669708  1
  As  As53  1  0.73279524  0.79431744  0.60225233  1
  As  As54  1  0.03244167  0.66336906  0.44824312  1
  As  As55  1  0.07929100  0.32173118  0.04279273  1
  As  As56  1  0.42070900  0.82173118  0.04279273  1
  As  As57  1  0.35463875  0.20371499  0.81606432  1
  As  As58  1  0.96755833  0.16336906  0.05175688  1
  As  As59  1  0.40809582  0.58870523  0.13330292  1
  As  As60  1  0.46755833  0.16336906  0.44824312  1
  As  As61  1  0.07228554  0.28032695  0.70542160  1
  As  As62  1  0.55275256  0.37954945  0.35739366  1
  As  As63  1  0.85463875  0.29628501  0.18393568  1
  As  As64  1  0.42771446  0.71967305  0.20542160  1
  As  As65  1  0.76720476  0.29431744  0.60225233  1
  As  As66  1  0.57228554  0.21967305  0.29457840  1
  As  As67  1  0.55275256  0.12045055  0.85739366  1
  As  As68  1  0.09190418  0.08870523  0.13330292  1
  As  As69  1  0.23279624  0.79431744  0.89774767  1
  As  As70  1  0.42070900  0.67826882  0.54279273  1
  As  As71  1  0.26720476  0.29431744  0.89774767  1
  As  As72  1  0.26720476  0.20568256  0.39774767  1
  As  As73  1  0.92771446  0.78032695  0.79457840  1
  As  As74  1  0.90809582  0.58870523  0.36669708  1
  As  As75  1  0.53244167  0.66336906  0.05175688  1
  As  As76  1  0.46755833  0.33663094  0.94824312  1
  As  As77  1  0.92070900  0.67826882  0.95720727  1
  As  As78  1  0.57929100  0.32173118  0.45720727  1
  As  As79  1  0.35463875  0.29628501  0.31606432  1
