# generated using pymatgen
data_SiB3
_symmetry_space_group_name_H-M   'P 1'
_cell_length_a   6.20633755
_cell_length_b   8.15371629
_cell_length_c   8.15371661
_cell_angle_alpha   61.69076513
_cell_angle_beta   67.63018849
_cell_angle_gamma   67.63017527
_symmetry_Int_Tables_number   1
_chemical_formula_structural   SiB3
_chemical_formula_sum   'Si8 B24'
_cell_volume   325.62657184
_cell_formula_units_Z   8
loop_
 _symmetry_equiv_pos_site_id
 _symmetry_equiv_pos_as_xyz
  1  'x, y, z'
loop_
 _atom_site_type_symbol
 _atom_site_label
 _atom_site_symmetry_multiplicity
 _atom_site_fract_x
 _atom_site_fract_y
 _atom_site_fract_z
 _atom_site_occupancy
  Si  Si0  1  0.31392497  0.48163702  0.01836298  1
  Si  Si1  1  0.68607503  0.98163702  0.51836298  1
  Si  Si2  1  0.84794541  0.15457319  0.15457319  1
  Si  Si3  1  0.31392497  0.01836298  0.48163702  1
  Si  Si4  1  0.68607503  0.51836298  0.98163702  1
  Si  Si5  1  0.65709179  0.34542681  0.34542681  1
  Si  Si6  1  0.34290821  0.65457319  0.65457319  1
  Si  Si7  1  0.15205459  0.84542681  0.84542681  1
  B  B8  1  0.14928890  0.57449046  0.57449046  1
  B  B9  1  0.11532019  0.49814714  0.27648756  1
  B  B10  1  0.61004412  0.99814714  0.77648756  1
  B  B11  1  0.88467981  0.50185286  0.72351244  1
  B  B12  1  0.85071110  0.42550954  0.42550954  1
  B  B13  1  0.88467981  0.72351244  0.50185286  1
  B  B14  1  0.15359836  0.67658330  0.32660438  1
  B  B15  1  0.65678603  0.82341670  0.17339562  1
  B  B16  1  0.34321397  0.17658330  0.82660438  1
  B  B17  1  0.20173118  0.07449046  0.07449046  1
  B  B18  1  0.61004412  0.77648756  0.99814714  1
  B  B19  1  0.84640164  0.67339562  0.32341670  1
  B  B20  1  0.84640164  0.32341670  0.67339562  1
  B  B21  1  0.11532019  0.27648756  0.49814714  1
  B  B22  1  0.34059632  0.93070296  0.93070296  1
  B  B23  1  0.70200323  0.56929704  0.56929704  1
  B  B24  1  0.65678603  0.17339562  0.82341670  1
  B  B25  1  0.38995588  0.00185286  0.22351244  1
  B  B26  1  0.15359836  0.32660438  0.67658330  1
  B  B27  1  0.65940368  0.06929704  0.06929704  1
  B  B28  1  0.29799677  0.43070296  0.43070296  1
  B  B29  1  0.38995588  0.22351244  0.00185286  1
  B  B30  1  0.79826882  0.92550954  0.92550954  1
  B  B31  1  0.34321397  0.82660438  0.17658330  1
