# generated using pymatgen
data_CsI4
_symmetry_space_group_name_H-M   'P 1'
_cell_length_a   9.05578607
_cell_length_b   10.36924598
_cell_length_c   11.44077590
_cell_angle_alpha   113.89511362
_cell_angle_beta   90.00000000
_cell_angle_gamma   90.00000000
_symmetry_Int_Tables_number   1
_chemical_formula_structural   CsI4
_chemical_formula_sum   'Cs4 I16'
_cell_volume   982.22745452
_cell_formula_units_Z   4
loop_
 _symmetry_equiv_pos_site_id
 _symmetry_equiv_pos_as_xyz
  1  'x, y, z'
loop_
 _atom_site_type_symbol
 _atom_site_label
 _atom_site_symmetry_multiplicity
 _atom_site_fract_x
 _atom_site_fract_y
 _atom_site_fract_z
 _atom_site_occupancy
  Cs  Cs0  1  0.87445139  0.27381618  0.19116168  1
  Cs  Cs1  1  0.37445139  0.72618382  0.30883832  1
  Cs  Cs2  1  0.62554861  0.27381618  0.69116168  1
  Cs  Cs3  1  0.12554861  0.72618382  0.80883832  1
  I  I4  1  0.97613743  0.67024877  0.45391960  1
  I  I5  1  0.35649815  0.45249286  0.50822754  1
  I  I6  1  0.20790667  0.12185139  0.60768641  1
  I  I7  1  0.47613743  0.32975123  0.04608040  1
  I  I8  1  0.89777779  0.05855197  0.82329405  1
  I  I9  1  0.10222221  0.94144803  0.17670595  1
  I  I10  1  0.02386257  0.32975123  0.54608040  1
  I  I11  1  0.29209333  0.12185139  0.10768641  1
  I  I12  1  0.39777779  0.94144803  0.67670595  1
  I  I13  1  0.85649815  0.54750714  0.99177246  1
  I  I14  1  0.52386257  0.67024877  0.95391960  1
  I  I15  1  0.64350185  0.54750714  0.49177246  1
  I  I16  1  0.14350185  0.45249286  0.00822754  1
  I  I17  1  0.70790667  0.87814861  0.89231359  1
  I  I18  1  0.79209333  0.87814861  0.39231359  1
  I  I19  1  0.60222221  0.05855197  0.32329405  1
