# generated using pymatgen
data_CsSn
_symmetry_space_group_name_H-M   'P 1'
_cell_length_a   14.68211776
_cell_length_b   14.68211776
_cell_length_c   14.68211776
_cell_angle_alpha   90.00000000
_cell_angle_beta   90.00000000
_cell_angle_gamma   90.00000000
_symmetry_Int_Tables_number   1
_chemical_formula_structural   CsSn
_chemical_formula_sum   'Cs32 Sn32'
_cell_volume   3164.94457661
_cell_formula_units_Z   32
loop_
 _symmetry_equiv_pos_site_id
 _symmetry_equiv_pos_as_xyz
  1  'x, y, z'
loop_
 _atom_site_type_symbol
 _atom_site_label
 _atom_site_symmetry_multiplicity
 _atom_site_fract_x
 _atom_site_fract_y
 _atom_site_fract_z
 _atom_site_occupancy
  Cs  Cs0  1  0.66383696  0.93437145  0.14144463  1
  Cs  Cs1  1  0.33321004  0.33321004  0.33321004  1
  Cs  Cs2  1  0.33616304  0.93437145  0.85855537  1
  Cs  Cs3  1  0.66678996  0.33321004  0.66678996  1
  Cs  Cs4  1  0.64144463  0.56562855  0.83616304  1
  Cs  Cs5  1  0.83321004  0.83321004  0.83321004  1
  Cs  Cs6  1  0.83321004  0.16678996  0.16678996  1
  Cs  Cs7  1  0.56562855  0.83616304  0.64144463  1
  Cs  Cs8  1  0.16678996  0.83321004  0.16678996  1
  Cs  Cs9  1  0.66383696  0.06562855  0.85855537  1
  Cs  Cs10  1  0.33616304  0.06562855  0.14144463  1
  Cs  Cs11  1  0.16383696  0.64144463  0.43437145  1
  Cs  Cs12  1  0.16678996  0.16678996  0.83321004  1
  Cs  Cs13  1  0.35855537  0.43437145  0.83616304  1
  Cs  Cs14  1  0.33321004  0.66678996  0.66678996  1
  Cs  Cs15  1  0.64144463  0.43437145  0.16383696  1
  Cs  Cs16  1  0.66678996  0.66678996  0.33321004  1
  Cs  Cs17  1  0.14144463  0.33616304  0.06562855  1
  Cs  Cs18  1  0.06562855  0.85855537  0.66383696  1
  Cs  Cs19  1  0.43437145  0.16383696  0.64144463  1
  Cs  Cs20  1  0.43437145  0.83616304  0.35855537  1
  Cs  Cs21  1  0.85855537  0.66383696  0.06562855  1
  Cs  Cs22  1  0.93437145  0.14144463  0.66383696  1
  Cs  Cs23  1  0.56562855  0.16383696  0.35855537  1
  Cs  Cs24  1  0.93437145  0.85855537  0.33616304  1
  Cs  Cs25  1  0.35855537  0.56562855  0.16383696  1
  Cs  Cs26  1  0.83616304  0.64144463  0.56562855  1
  Cs  Cs27  1  0.06562855  0.14144463  0.33616304  1
  Cs  Cs28  1  0.83616304  0.35855537  0.43437145  1
  Cs  Cs29  1  0.14144463  0.66383696  0.93437145  1
  Cs  Cs30  1  0.16383696  0.35855537  0.56562855  1
  Cs  Cs31  1  0.85855537  0.33616304  0.93437145  1
  Sn  Sn32  1  0.42314887  0.68035574  0.93364471  1
  Sn  Sn33  1  0.07102138  0.92897862  0.92897862  1
  Sn  Sn34  1  0.92314887  0.56635529  0.81964426  1
  Sn  Sn35  1  0.57102138  0.42897862  0.42897862  1
  Sn  Sn36  1  0.07685113  0.56635529  0.18035574  1
  Sn  Sn37  1  0.42897862  0.57102138  0.42897862  1
  Sn  Sn38  1  0.31964426  0.06635529  0.42314887  1
  Sn  Sn39  1  0.18035574  0.92314887  0.43364471  1
  Sn  Sn40  1  0.07102138  0.07102138  0.07102138  1
  Sn  Sn41  1  0.18035574  0.07685113  0.56635529  1
  Sn  Sn42  1  0.92314887  0.43364471  0.18035574  1
  Sn  Sn43  1  0.93364471  0.42314887  0.68035574  1
  Sn  Sn44  1  0.07685113  0.43364471  0.81964426  1
  Sn  Sn45  1  0.56635529  0.18035574  0.07685113  1
  Sn  Sn46  1  0.57102138  0.57102138  0.57102138  1
  Sn  Sn47  1  0.81964426  0.07685113  0.43364471  1
  Sn  Sn48  1  0.57685113  0.68035574  0.06635529  1
  Sn  Sn49  1  0.68035574  0.93364471  0.42314887  1
  Sn  Sn50  1  0.68035574  0.06635529  0.57685113  1
  Sn  Sn51  1  0.42314887  0.31964426  0.06635529  1
  Sn  Sn52  1  0.81964426  0.92314887  0.56635529  1
  Sn  Sn53  1  0.92897862  0.07102138  0.92897862  1
  Sn  Sn54  1  0.56635529  0.81964426  0.92314887  1
  Sn  Sn55  1  0.42897862  0.42897862  0.57102138  1
  Sn  Sn56  1  0.57685113  0.31964426  0.93364471  1
  Sn  Sn57  1  0.43364471  0.18035574  0.92314887  1
  Sn  Sn58  1  0.93364471  0.57685113  0.31964426  1
  Sn  Sn59  1  0.06635529  0.42314887  0.31964426  1
  Sn  Sn60  1  0.31964426  0.93364471  0.57685113  1
  Sn  Sn61  1  0.92897862  0.92897862  0.07102138  1
  Sn  Sn62  1  0.06635529  0.57685113  0.68035574  1
  Sn  Sn63  1  0.43364471  0.81964426  0.07685113  1
