# generated using pymatgen
data_K3As11
_symmetry_space_group_name_H-M   'P 1'
_cell_length_a   10.81087562
_cell_length_b   11.07399972
_cell_length_c   14.65973195
_cell_angle_alpha   90.00000000
_cell_angle_beta   90.00000000
_cell_angle_gamma   90.00000000
_symmetry_Int_Tables_number   1
_chemical_formula_structural   K3As11
_chemical_formula_sum   'K12 As44'
_cell_volume   1755.05773756
_cell_formula_units_Z   4
loop_
 _symmetry_equiv_pos_site_id
 _symmetry_equiv_pos_as_xyz
  1  'x, y, z'
loop_
 _atom_site_type_symbol
 _atom_site_label
 _atom_site_symmetry_multiplicity
 _atom_site_fract_x
 _atom_site_fract_y
 _atom_site_fract_z
 _atom_site_occupancy
  K  K0  1  0.08864770  0.76827108  0.01448778  1
  K  K1  1  0.58864770  0.73172892  0.48551222  1
  K  K2  1  0.91135230  0.26827108  0.48551222  1
  K  K3  1  0.41135230  0.23172892  0.01448778  1
  K  K4  1  0.91135230  0.23172892  0.98551222  1
  K  K5  1  0.41135230  0.26827108  0.51448778  1
  K  K6  1  0.08864770  0.73172892  0.51448778  1
  K  K7  1  0.58864770  0.76827108  0.98551222  1
  K  K8  1  0.25000000  -0.00000000  0.29243973  1
  K  K9  1  0.75000000  0.50000000  0.20756027  1
  K  K10  1  0.75000000  -0.00000000  0.70756027  1
  K  K11  1  0.25000000  0.50000000  0.79243973  1
  As  As12  1  0.26837100  0.68828821  0.24375918  1
  As  As13  1  0.76837100  0.81171179  0.25624082  1
  As  As14  1  0.73162900  0.18828821  0.25624082  1
  As  As15  1  0.23162900  0.31171179  0.24375918  1
  As  As16  1  0.73162900  0.31171179  0.75624082  1
  As  As17  1  0.23162900  0.18828821  0.74375918  1
  As  As18  1  0.26837100  0.81171179  0.74375918  1
  As  As19  1  0.76837100  0.68828821  0.75624082  1
  As  As20  1  0.05792484  0.60778946  0.21449082  1
  As  As21  1  0.55792484  0.89221054  0.28550918  1
  As  As22  1  0.94207516  0.10778946  0.28550918  1
  As  As23  1  0.44207516  0.39221054  0.21449082  1
  As  As24  1  0.94207516  0.39221054  0.78550918  1
  As  As25  1  0.44207516  0.10778946  0.71449082  1
  As  As26  1  0.05792484  0.89221054  0.71449082  1
  As  As27  1  0.55792484  0.60778946  0.78550918  1
  As  As28  1  0.39661755  0.57910506  0.13084742  1
  As  As29  1  0.89661755  0.92089494  0.36915258  1
  As  As30  1  0.60338245  0.07910506  0.36915258  1
  As  As31  1  0.10338245  0.42089494  0.13084742  1
  As  As32  1  0.60338245  0.42089494  0.86915258  1
  As  As33  1  0.10338245  0.07910506  0.63084742  1
  As  As34  1  0.39661755  0.92089494  0.63084742  1
  As  As35  1  0.89661755  0.57910506  0.86915258  1
  As  As36  1  0.32392037  0.58411499  0.38781735  1
  As  As37  1  0.82392037  0.91588501  0.11218265  1
  As  As38  1  0.67607963  0.08411499  0.11218265  1
  As  As39  1  0.17607963  0.41588501  0.38781735  1
  As  As40  1  0.67607963  0.41588501  0.61218265  1
  As  As41  1  0.17607963  0.08411499  0.88781735  1
  As  As42  1  0.32392037  0.91588501  0.88781735  1
  As  As43  1  0.82392037  0.58411499  0.61218265  1
  As  As44  1  0.50943065  0.47232776  0.35779827  1
  As  As45  1  0.00943065  0.02767224  0.14220173  1
  As  As46  1  0.49056935  0.97232776  0.14220173  1
  As  As47  1  0.99056935  0.52767224  0.35779827  1
  As  As48  1  0.49056935  0.52767224  0.64220173  1
  As  As49  1  0.99056935  0.97232776  0.85779827  1
  As  As50  1  0.50943065  0.02767224  0.85779827  1
  As  As51  1  0.00943065  0.47232776  0.64220173  1
  As  As52  1  0.25000000  -0.00000000  0.52335658  1
  As  As53  1  0.75000000  0.50000000  0.97664342  1
  As  As54  1  0.75000000  -0.00000000  0.47664342  1
  As  As55  1  0.25000000  0.50000000  0.02335658  1
