# generated using pymatgen
data_CaMn6SiO12
_symmetry_space_group_name_H-M   'P 1'
_cell_length_a   11.57042659
_cell_length_b   11.57042659
_cell_length_c   11.57042659
_cell_angle_alpha   131.67625771
_cell_angle_beta   131.67625771
_cell_angle_gamma   70.74082574
_symmetry_Int_Tables_number   1
_chemical_formula_structural   CaMn6SiO12
_chemical_formula_sum   'Ca4 Mn24 Si4 O48'
_cell_volume   846.46778967
_cell_formula_units_Z   4
loop_
 _symmetry_equiv_pos_site_id
 _symmetry_equiv_pos_as_xyz
  1  'x, y, z'
loop_
 _atom_site_type_symbol
 _atom_site_label
 _atom_site_symmetry_multiplicity
 _atom_site_fract_x
 _atom_site_fract_y
 _atom_site_fract_z
 _atom_site_occupancy
  Ca  Ca0  1  0.25000000  0.25000000  -0.00000000  1
  Ca  Ca1  1  0.75000000  0.75000000  -0.00000000  1
  Ca  Ca2  1  0.50000000  0.00000000  0.50000000  1
  Ca  Ca3  1  -0.00000000  0.50000000  0.50000000  1
  Mn  Mn4  1  0.12500000  0.90337571  0.27837571  1
  Mn  Mn5  1  0.87500000  0.12500000  0.25000000  1
  Mn  Mn6  1  0.59662429  0.37500000  0.72162429  1
  Mn  Mn7  1  0.87500000  0.62500000  0.75000000  1
  Mn  Mn8  1  0.09662429  0.37500000  0.22162429  1
  Mn  Mn9  1  0.37500000  0.62500000  0.25000000  1
  Mn  Mn10  1  0.87500000  0.12500000  0.75000000  1
  Mn  Mn11  1  0.98713192  0.51286808  -0.00000000  1
  Mn  Mn12  1  0.26286808  0.76286808  0.02573716  1
  Mn  Mn13  1  0.73713192  0.23713192  0.97426284  1
  Mn  Mn14  1  0.12500000  0.40337571  0.77837571  1
  Mn  Mn15  1  0.37500000  0.12500000  0.75000000  1
  Mn  Mn16  1  0.65337571  0.87500000  0.27837571  1
  Mn  Mn17  1  0.51286808  0.98713192  -0.00000000  1
  Mn  Mn18  1  0.76286808  0.73713192  0.50000000  1
  Mn  Mn19  1  0.23713192  0.26286808  0.50000000  1
  Mn  Mn20  1  0.37500000  0.62500000  0.75000000  1
  Mn  Mn21  1  0.37500000  0.12500000  0.25000000  1
  Mn  Mn22  1  0.48713192  0.48713192  0.47426284  1
  Mn  Mn23  1  0.15337571  0.87500000  0.77837571  1
  Mn  Mn24  1  0.62500000  0.84662429  0.72162429  1
  Mn  Mn25  1  0.62500000  0.34662429  0.22162429  1
  Mn  Mn26  1  0.01286808  0.01286808  0.52573716  1
  Mn  Mn27  1  0.87500000  0.62500000  0.25000000  1
  Si  Si28  1  0.75000000  0.25000000  0.50000000  1
  Si  Si29  1  0.50000000  0.50000000  -0.00000000  1
  Si  Si30  1  -0.00000000  0.00000000  -0.00000000  1
  Si  Si31  1  0.25000000  0.75000000  0.50000000  1
  O  O32  1  0.93648834  0.13095317  0.96773078  1
  O  O33  1  0.78968680  0.26102771  0.18752019  1
  O  O34  1  0.57350752  0.76102771  0.47134091  1
  O  O35  1  0.28968680  0.10216561  0.52865909  1
  O  O36  1  0.85216561  0.82350752  0.31247981  1
  O  O37  1  0.46031320  0.14783439  0.97134091  1
  O  O38  1  0.27200267  0.81072858  0.22892929  1
  O  O39  1  0.45692662  0.91820171  0.22892929  1
  O  O40  1  0.47799733  0.43927142  0.27107071  1
  O  O41  1  0.77200267  0.54307338  0.46127510  1
  O  O42  1  0.97799733  0.70692662  0.03872490  1
  O  O43  1  0.88095317  0.41322239  0.69446483  1
  O  O44  1  0.29307338  0.33179829  0.27107071  1
  O  O45  1  0.66322239  0.63095317  0.19446483  1
  O  O46  1  0.38095317  0.68648834  0.46773078  1
  O  O47  1  0.36904683  0.56351166  0.03226922  1
  O  O48  1  0.58677761  0.28124344  0.46773078  1
  O  O49  1  0.71875656  0.18648834  0.30553517  1
  O  O50  1  0.53124344  0.33677761  0.96773078  1
  O  O51  1  0.07350752  0.60216561  0.81247981  1
  O  O52  1  0.03124344  0.06351166  0.19446483  1
  O  O53  1  0.58179829  0.04307338  0.77107071  1
  O  O54  1  0.81351166  0.11904683  0.53226922  1
  O  O55  1  0.96031320  0.98897229  0.31247981  1
  O  O56  1  0.01102771  0.32350752  0.97134091  1
  O  O57  1  0.56072858  0.83179829  0.03872490  1
  O  O58  1  0.06072858  0.02200267  0.72892929  1
  O  O59  1  0.35216561  0.03968680  0.02865909  1
  O  O60  1  0.17649248  0.48897229  0.02865909  1
  O  O61  1  0.08179829  0.31072858  0.53872490  1
  O  O62  1  0.68927142  0.22799733  0.77107071  1
  O  O63  1  0.66820171  0.93927142  0.96127510  1
  O  O64  1  0.67649248  0.64783439  0.68752019  1
  O  O65  1  0.16820171  0.20692662  0.72892929  1
  O  O66  1  0.16322239  0.96875656  0.03226922  1
  O  O67  1  0.79307338  0.52200267  0.96127510  1
  O  O68  1  0.95692662  0.72799733  0.53872490  1
  O  O69  1  0.51102771  0.53968680  0.68752019  1
  O  O70  1  0.86904683  0.83677761  0.80553517  1
  O  O71  1  0.89783439  0.42649248  0.18752019  1
  O  O72  1  0.18927142  0.41820171  0.46127510  1
  O  O73  1  0.31351166  0.78124344  0.69446483  1
  O  O74  1  0.08677761  0.61904683  0.30553517  1
  O  O75  1  0.39783439  0.21031320  0.47134091  1
  O  O76  1  0.21875656  0.91322239  0.53226922  1
  O  O77  1  0.23897229  0.71031320  0.81247981  1
  O  O78  1  0.43648834  0.46875656  0.80553517  1
  O  O79  1  0.73897229  0.92649248  0.52865909  1
