# generated using pymatgen
data_Ca3(SiAs2)2
_symmetry_space_group_name_H-M   'P 1'
_cell_length_a   17.71115055
_cell_length_b   7.15571536
_cell_length_c   7.29465113
_cell_angle_alpha   68.32156842
_cell_angle_beta   90.00000000
_cell_angle_gamma   90.00000000
_symmetry_Int_Tables_number   1
_chemical_formula_structural   Ca3(SiAs2)2
_chemical_formula_sum   'Ca12 Si8 As16'
_cell_volume   859.10662104
_cell_formula_units_Z   4
loop_
 _symmetry_equiv_pos_site_id
 _symmetry_equiv_pos_as_xyz
  1  'x, y, z'
loop_
 _atom_site_type_symbol
 _atom_site_label
 _atom_site_symmetry_multiplicity
 _atom_site_fract_x
 _atom_site_fract_y
 _atom_site_fract_z
 _atom_site_occupancy
  Ca  Ca0  1  0.06012804  0.01170901  0.74516577  1
  Ca  Ca1  1  0.56012804  0.48829099  0.25483423  1
  Ca  Ca2  1  0.93987196  0.98829099  0.25483423  1
  Ca  Ca3  1  0.43987196  0.51170901  0.74516577  1
  Ca  Ca4  1  0.05964529  0.49751886  0.26135143  1
  Ca  Ca5  1  0.55964529  0.00248114  0.73864857  1
  Ca  Ca6  1  0.94035471  0.50248114  0.73864857  1
  Ca  Ca7  1  0.44035471  0.99751886  0.26135143  1
  Ca  Ca8  1  0.18390952  0.51322254  0.78143080  1
  Ca  Ca9  1  0.68390952  0.98677746  0.21856920  1
  Ca  Ca10  1  0.81609048  0.48677746  0.21856920  1
  Ca  Ca11  1  0.31609048  0.01322254  0.78143080  1
  Si  Si12  1  0.25981593  0.57994538  0.31553174  1
  Si  Si13  1  0.75981593  0.92005462  0.68446826  1
  Si  Si14  1  0.74018407  0.42005462  0.68446826  1
  Si  Si15  1  0.24018407  0.07994538  0.31553174  1
  Si  Si16  1  0.62968594  0.52928376  0.78757826  1
  Si  Si17  1  0.12968594  0.97071624  0.21242174  1
  Si  Si18  1  0.37031406  0.47071624  0.21242174  1
  Si  Si19  1  0.87031406  0.02928376  0.78757826  1
  As  As20  1  0.19719027  0.27179892  0.50343285  1
  As  As21  1  0.69719027  0.22820108  0.49656715  1
  As  As22  1  0.80280973  0.72820108  0.49656715  1
  As  As23  1  0.30280973  0.77179892  0.50343285  1
  As  As24  1  0.31292363  0.27794767  0.03896655  1
  As  As25  1  0.81292363  0.22205233  0.96103345  1
  As  As26  1  0.68707637  0.72205233  0.96103345  1
  As  As27  1  0.18707637  0.77794767  0.03896655  1
  As  As28  1  0.06172563  0.24814357  0.00816082  1
  As  As29  1  0.56172563  0.25185643  0.99183918  1
  As  As30  1  0.93827437  0.75185643  0.99183918  1
  As  As31  1  0.43827437  0.74814357  0.00816082  1
  As  As32  1  0.06809322  0.75842524  0.49779245  1
  As  As33  1  0.56809322  0.74157476  0.50220755  1
  As  As34  1  0.93190678  0.24157476  0.50220755  1
  As  As35  1  0.43190678  0.25842524  0.49779245  1
