# generated using pymatgen
data_Ga2S3
_symmetry_space_group_name_H-M   'P 1'
_cell_length_a   6.45523076
_cell_length_b   6.47659095
_cell_length_c   7.05343939
_cell_angle_alpha   116.53502820
_cell_angle_beta   90.00000000
_cell_angle_gamma   119.89095037
_symmetry_Int_Tables_number   1
_chemical_formula_structural   Ga2S3
_chemical_formula_sum   'Ga4 S6'
_cell_volume   219.10610836
_cell_formula_units_Z   2
loop_
 _symmetry_equiv_pos_site_id
 _symmetry_equiv_pos_as_xyz
  1  'x, y, z'
loop_
 _atom_site_type_symbol
 _atom_site_label
 _atom_site_symmetry_multiplicity
 _atom_site_fract_x
 _atom_site_fract_y
 _atom_site_fract_z
 _atom_site_occupancy
  Ga  Ga0  1  0.13653814  0.40574596  0.61964728  1
  Ga  Ga1  1  0.26920781  0.40574596  0.11964728  1
  Ga  Ga2  1  0.44718999  0.08814768  0.62905923  1
  Ga  Ga3  1  0.64095870  0.08814768  0.12905923  1
  S  S4  1  0.42851516  0.67989794  0.50284171  1
  S  S5  1  0.25138278  0.67989794  0.00284171  1
  S  S6  1  0.76053466  0.34699161  0.51185829  1
  S  S7  1  0.58645796  0.34699161  0.01185829  1
  S  S8  1  0.91099758  0.00121681  0.98559649  1
  S  S9  1  0.09021723  0.00121681  0.48559649  1
