# generated using pymatgen
data_Rb3As11
_symmetry_space_group_name_H-M   'P 1'
_cell_length_a   10.87477383
_cell_length_b   11.33417500
_cell_length_c   15.44335771
_cell_angle_alpha   90.00000000
_cell_angle_beta   90.00000000
_cell_angle_gamma   90.00000000
_symmetry_Int_Tables_number   1
_chemical_formula_structural   Rb3As11
_chemical_formula_sum   'Rb12 As44'
_cell_volume   1903.49560446
_cell_formula_units_Z   4
loop_
 _symmetry_equiv_pos_site_id
 _symmetry_equiv_pos_as_xyz
  1  'x, y, z'
loop_
 _atom_site_type_symbol
 _atom_site_label
 _atom_site_symmetry_multiplicity
 _atom_site_fract_x
 _atom_site_fract_y
 _atom_site_fract_z
 _atom_site_occupancy
  Rb  Rb0  1  0.25000000  -0.00000000  0.80403159  1
  Rb  Rb1  1  0.75000000  0.50000000  0.69596841  1
  Rb  Rb2  1  0.75000000  -0.00000000  0.19596841  1
  Rb  Rb3  1  0.25000000  0.50000000  0.30403159  1
  Rb  Rb4  1  0.40552496  0.27822155  0.01839200  1
  Rb  Rb5  1  0.90552496  0.22177845  0.48160800  1
  Rb  Rb6  1  0.59447504  0.77822155  0.48160800  1
  Rb  Rb7  1  0.09447504  0.72177845  0.01839200  1
  Rb  Rb8  1  0.59447504  0.72177845  0.98160800  1
  Rb  Rb9  1  0.09447504  0.77822155  0.51839200  1
  Rb  Rb10  1  0.40552496  0.22177845  0.51839200  1
  Rb  Rb11  1  0.90552496  0.27822155  0.98160800  1
  As  As12  1  0.22601465  0.18361169  0.24200672  1
  As  As13  1  0.72601465  0.31638831  0.25799328  1
  As  As14  1  0.77398535  0.68361169  0.25799328  1
  As  As15  1  0.27398535  0.81638831  0.24200672  1
  As  As16  1  0.77398535  0.81638831  0.75799328  1
  As  As17  1  0.27398535  0.68361169  0.74200672  1
  As  As18  1  0.22601465  0.31638831  0.74200672  1
  As  As19  1  0.72601465  0.18361169  0.75799328  1
  As  As20  1  0.43763346  0.11124309  0.21468862  1
  As  As21  1  0.93763346  0.38875691  0.28531138  1
  As  As22  1  0.56236654  0.61124309  0.28531138  1
  As  As23  1  0.06236654  0.88875691  0.21468862  1
  As  As24  1  0.56236654  0.88875691  0.78531138  1
  As  As25  1  0.06236654  0.61124309  0.71468862  1
  As  As26  1  0.43763346  0.38875691  0.71468862  1
  As  As27  1  0.93763346  0.11124309  0.78531138  1
  As  As28  1  0.17368708  0.07993671  0.37857945  1
  As  As29  1  0.67368708  0.42006329  0.12142055  1
  As  As30  1  0.82631292  0.57993671  0.12142055  1
  As  As31  1  0.32631292  0.92006329  0.37857945  1
  As  As32  1  0.82631292  0.92006329  0.62142055  1
  As  As33  1  0.32631292  0.57993671  0.87857945  1
  As  As34  1  0.17368708  0.42006329  0.87857945  1
  As  As35  1  0.67368708  0.07993671  0.62142055  1
  As  As36  1  0.10184168  0.07277246  0.13483128  1
  As  As37  1  0.60184168  0.42722754  0.36516872  1
  As  As38  1  0.89815832  0.57277246  0.36516872  1
  As  As39  1  0.39815832  0.92722754  0.13483128  1
  As  As40  1  0.89815832  0.92722754  0.86516872  1
  As  As41  1  0.39815832  0.57277246  0.63483128  1
  As  As42  1  0.10184168  0.42722754  0.63483128  1
  As  As43  1  0.60184168  0.07277246  0.86516872  1
  As  As44  1  0.00777991  0.46733609  0.15033135  1
  As  As45  1  0.50777991  0.03266391  0.34966865  1
  As  As46  1  0.99222009  0.96733609  0.34966865  1
  As  As47  1  0.49222009  0.53266391  0.15033135  1
  As  As48  1  0.99222009  0.53266391  0.84966865  1
  As  As49  1  0.49222009  0.96733609  0.65033135  1
  As  As50  1  0.00777991  0.03266391  0.65033135  1
  As  As51  1  0.50777991  0.46733609  0.84966865  1
  As  As52  1  0.25000000  -0.00000000  0.03275111  1
  As  As53  1  0.75000000  0.50000000  0.46724889  1
  As  As54  1  0.75000000  -0.00000000  0.96724889  1
  As  As55  1  0.25000000  0.50000000  0.53275111  1
