# generated using pymatgen
data_MnF4
_symmetry_space_group_name_H-M   'P 1'
_cell_length_a   9.38595474
_cell_length_b   9.38588849
_cell_length_c   9.38578127
_cell_angle_alpha   95.73223503
_cell_angle_beta   95.73290169
_cell_angle_gamma   143.15136626
_symmetry_Int_Tables_number   1
_chemical_formula_structural   MnF4
_chemical_formula_sum   'Mn8 F32'
_cell_volume   470.44652027
_cell_formula_units_Z   8
loop_
 _symmetry_equiv_pos_site_id
 _symmetry_equiv_pos_as_xyz
  1  'x, y, z'
loop_
 _atom_site_type_symbol
 _atom_site_label
 _atom_site_symmetry_multiplicity
 _atom_site_fract_x
 _atom_site_fract_y
 _atom_site_fract_z
 _atom_site_occupancy
  Mn  Mn0  1  0.23859667  0.48835417  0.00883673  1
  Mn  Mn1  1  0.47976221  0.98860005  0.25025029  1
  Mn  Mn2  1  0.73833729  0.22949172  0.74975196  1
  Mn  Mn3  1  0.47949680  0.22974886  0.99115505  1
  Mn  Mn4  1  0.01139732  0.26164221  0.49115659  1
  Mn  Mn5  1  0.77024472  0.76140032  0.24975085  1
  Mn  Mn6  1  0.51165490  0.52051024  0.75025187  1
  Mn  Mn7  1  0.77048899  0.52023951  0.50884705  1
  F  F8  1  0.42768535  0.53362126  0.15692845  1
  F  F9  1  0.52074211  0.17767400  0.39406890  1
  F  F10  1  0.78361782  0.12667816  0.60594402  1
  F  F11  1  0.37669093  0.27076203  0.84307235  1
  F  F12  1  0.82231628  0.21638362  0.34307640  1
  F  F13  1  0.72923875  0.57230734  0.10593093  1
  F  F14  1  0.46639582  0.62333139  0.89406081  1
  F  F15  1  0.87330021  0.47923628  0.65693159  1
  F  F16  1  0.63324513  0.53077078  0.36279216  1
  F  F17  1  0.52045727  0.38324818  0.60247327  1
  F  F18  1  0.78078147  0.91797909  0.39752540  1
  F  F19  1  0.16799970  0.27046723  0.63720772  1
  F  F20  1  0.61674673  0.21922843  0.13720556  1
  F  F21  1  0.72952801  0.36673645  0.89752159  1
  F  F22  1  0.46923285  0.83202966  0.10247745  1
  F  F23  1  0.08201649  0.47954093  0.86278961  1
  F  F24  1  0.05541332  0.19559938  0.91551887  1
  F  F25  1  0.38987694  0.80539074  0.35981613  1
  F  F26  1  0.44556746  0.03003370  0.64019223  1
  F  F27  1  0.28005185  0.13986647  0.08448554  1
  F  F28  1  0.19461141  0.55442211  0.58449537  1
  F  F29  1  0.86012701  0.94461991  0.14018404  1
  F  F30  1  0.80444212  0.71995268  0.85980753  1
  F  F31  1  0.96993585  0.61012355  0.41551059  1
  F  F32  1  0.04954805  0.39179733  0.11536471  1
  F  F33  1  0.18418587  0.79954926  0.15775832  1
  F  F34  1  0.64179067  0.02642036  0.84225830  1
  F  F35  1  0.27640164  0.93416533  0.88462903  1
  F  F36  1  0.20045957  0.35822284  0.38464392  1
  F  F37  1  0.06580944  0.95045406  0.34223803  1
  F  F38  1  0.60823038  0.72358201  0.65774137  1
  F  F39  1  0.97357161  0.81581736  0.61534846  1
