# generated using pymatgen
data_SbCl5
_symmetry_space_group_name_H-M   'P 1'
_cell_length_a   9.72036702
_cell_length_b   12.21183518
_cell_length_c   12.54089559
_cell_angle_alpha   90.00000000
_cell_angle_beta   108.50678331
_cell_angle_gamma   90.00000000
_symmetry_Int_Tables_number   1
_chemical_formula_structural   SbCl5
_chemical_formula_sum   'Sb8 Cl40'
_cell_volume   1411.66460603
_cell_formula_units_Z   8
loop_
 _symmetry_equiv_pos_site_id
 _symmetry_equiv_pos_as_xyz
  1  'x, y, z'
loop_
 _atom_site_type_symbol
 _atom_site_label
 _atom_site_symmetry_multiplicity
 _atom_site_fract_x
 _atom_site_fract_y
 _atom_site_fract_z
 _atom_site_occupancy
  Sb  Sb0  1  0.18796286  0.12763162  0.70337651  1
  Sb  Sb1  1  0.37883760  0.86819402  0.18810250  1
  Sb  Sb2  1  0.81203714  0.62763162  0.79662349  1
  Sb  Sb3  1  0.62116240  0.36819402  0.31189750  1
  Sb  Sb4  1  0.62116240  0.13180598  0.81189750  1
  Sb  Sb5  1  0.18796286  0.37236838  0.20337651  1
  Sb  Sb6  1  0.37883760  0.63180598  0.68810250  1
  Sb  Sb7  1  0.81203714  0.87236838  0.29662349  1
  Cl  Cl8  1  0.96778768  0.99588465  0.25335928  1
  Cl  Cl9  1  0.60392475  0.47783820  0.15520613  1
  Cl  Cl10  1  0.39607525  0.52216180  0.84479387  1
  Cl  Cl11  1  0.78569486  0.52026173  0.94271450  1
  Cl  Cl12  1  0.78195420  0.48732663  0.43495399  1
  Cl  Cl13  1  0.21847519  0.74767096  0.22915894  1
  Cl  Cl14  1  0.59786523  0.25884731  0.45817649  1
  Cl  Cl15  1  0.97482547  0.75432232  0.41837338  1
  Cl  Cl16  1  0.40780678  0.48165729  0.33445165  1
  Cl  Cl17  1  0.59219322  0.98165729  0.16554835  1
  Cl  Cl18  1  0.39607525  0.97783820  0.34479387  1
  Cl  Cl19  1  0.21430514  0.47973827  0.05728550  1
  Cl  Cl20  1  0.78152481  0.25232904  0.77084106  1
  Cl  Cl21  1  0.21847519  0.75232904  0.72915894  1
  Cl  Cl22  1  0.21430514  0.02026173  0.55728550  1
  Cl  Cl23  1  0.97482547  0.74567768  0.91837338  1
  Cl  Cl24  1  0.78152481  0.24767096  0.27084106  1
  Cl  Cl25  1  0.20676350  0.23703488  0.85993495  1
  Cl  Cl26  1  0.59565231  0.75804773  0.31822736  1
  Cl  Cl27  1  0.03221232  0.00411535  0.74664072  1
  Cl  Cl28  1  0.78569486  0.97973827  0.44271450  1
  Cl  Cl29  1  0.79323650  0.73703488  0.64006505  1
  Cl  Cl30  1  0.02517453  0.25432232  0.08162662  1
  Cl  Cl31  1  0.03221232  0.49588465  0.24664072  1
  Cl  Cl32  1  0.40434769  0.25804773  0.18177264  1
  Cl  Cl33  1  0.78195420  0.01267337  0.93495399  1
  Cl  Cl34  1  0.60392475  0.02216180  0.65520613  1
  Cl  Cl35  1  0.40213477  0.75884731  0.04182351  1
  Cl  Cl36  1  0.02517453  0.24567768  0.58162662  1
  Cl  Cl37  1  0.59565231  0.74195227  0.81822736  1
  Cl  Cl38  1  0.59219322  0.51834271  0.66554835  1
  Cl  Cl39  1  0.21804580  0.51267337  0.56504601  1
  Cl  Cl40  1  0.40434769  0.24195227  0.68177264  1
  Cl  Cl41  1  0.40780678  0.01834271  0.83445165  1
  Cl  Cl42  1  0.59786523  0.24115269  0.95817649  1
  Cl  Cl43  1  0.96778768  0.50411535  0.75335928  1
  Cl  Cl44  1  0.79323650  0.76296512  0.14006505  1
  Cl  Cl45  1  0.20676350  0.26296512  0.35993495  1
  Cl  Cl46  1  0.21804580  0.98732663  0.06504601  1
  Cl  Cl47  1  0.40213477  0.74115269  0.54182351  1
