# generated using pymatgen
data_Cs3As11
_symmetry_space_group_name_H-M   'P 1'
_cell_length_a   10.24619141
_cell_length_b   10.24619187
_cell_length_c   19.60428040
_cell_angle_alpha   93.18606269
_cell_angle_beta   93.18606630
_cell_angle_gamma   98.58119063
_symmetry_Int_Tables_number   1
_chemical_formula_structural   Cs3As11
_chemical_formula_sum   'Cs12 As44'
_cell_volume   2027.70201252
_cell_formula_units_Z   4
loop_
 _symmetry_equiv_pos_site_id
 _symmetry_equiv_pos_as_xyz
  1  'x, y, z'
loop_
 _atom_site_type_symbol
 _atom_site_label
 _atom_site_symmetry_multiplicity
 _atom_site_fract_x
 _atom_site_fract_y
 _atom_site_fract_z
 _atom_site_occupancy
  Cs  Cs0  1  0.20479308  0.71058756  0.10848237  1
  Cs  Cs1  1  0.30506830  0.46886067  0.87028066  1
  Cs  Cs2  1  0.69493170  0.53113933  0.12971934  1
  Cs  Cs3  1  0.74232302  0.02615084  0.11920458  1
  Cs  Cs4  1  0.97384916  0.25767698  0.38079542  1
  Cs  Cs5  1  0.79520692  0.28941244  0.89151763  1
  Cs  Cs6  1  0.53113933  0.69493170  0.62971934  1
  Cs  Cs7  1  0.71058756  0.20479308  0.60848237  1
  Cs  Cs8  1  0.46886067  0.30506830  0.37028066  1
  Cs  Cs9  1  0.02615084  0.74232302  0.61920458  1
  Cs  Cs10  1  0.28941244  0.79520692  0.39151763  1
  Cs  Cs11  1  0.25767698  0.97384916  0.88079542  1
  As  As12  1  0.28467730  0.02200723  0.24483596  1
  As  As13  1  0.97799277  0.71532270  0.25516404  1
  As  As14  1  0.93283007  0.90698936  0.31890839  1
  As  As15  1  0.66355184  0.60240235  0.94600837  1
  As  As16  1  0.55814528  0.83482617  0.81357668  1
  As  As17  1  0.63822016  0.01100599  0.39729072  1
  As  As18  1  0.47661882  0.25260589  0.00635154  1
  As  As19  1  0.27127001  0.11781159  0.51914222  1
  As  As20  1  0.09301064  0.06716993  0.18109161  1
  As  As21  1  0.71532270  0.97799277  0.75516404  1
  As  As22  1  0.05175384  0.14825253  0.55901395  1
  As  As23  1  0.52338018  0.74739411  0.99364846  1
  As  As24  1  0.06765251  0.39176239  0.56947976  1
  As  As25  1  0.06716993  0.09301064  0.68109161  1
  As  As26  1  0.14825253  0.05175384  0.05901395  1
  As  As27  1  0.83482617  0.55814528  0.31357668  1
  As  As28  1  0.37517286  0.34892109  0.67927608  1
  As  As29  1  0.11781159  0.27127001  0.01914222  1
  As  As30  1  0.39759765  0.33644816  0.55399163  1
  As  As31  1  0.65107891  0.62482714  0.82072392  1
  As  As32  1  0.93234749  0.60823761  0.43052024  1
  As  As33  1  0.62482714  0.65107891  0.32072392  1
  As  As34  1  0.85174747  0.94824616  0.94098605  1
  As  As35  1  0.74739411  0.52338018  0.49364846  1
  As  As36  1  0.36177984  0.98899401  0.60270928  1
  As  As37  1  0.34892109  0.37517286  0.17927608  1
  As  As38  1  0.69187976  0.88714177  0.29832382  1
  As  As39  1  0.33644816  0.39759765  0.05399163  1
  As  As40  1  0.01100599  0.63822016  0.89729072  1
  As  As41  1  0.02200723  0.28467730  0.74483596  1
  As  As42  1  0.98899401  0.36177984  0.10270928  1
  As  As43  1  0.94824616  0.85174747  0.44098605  1
  As  As44  1  0.90698936  0.93283007  0.81890839  1
  As  As45  1  0.60823761  0.93234749  0.93052024  1
  As  As46  1  0.11285823  0.30812024  0.20167618  1
  As  As47  1  0.39176239  0.06765251  0.06947976  1
  As  As48  1  0.88714177  0.69187976  0.79832382  1
  As  As49  1  0.72872999  0.88218841  0.48085778  1
  As  As50  1  0.88218841  0.72872999  0.98085778  1
  As  As51  1  0.44185472  0.16517383  0.18642332  1
  As  As52  1  0.60240235  0.66355184  0.44600837  1
  As  As53  1  0.30812024  0.11285823  0.70167618  1
  As  As54  1  0.16517383  0.44185472  0.68642332  1
  As  As55  1  0.25260589  0.47661882  0.50635154  1
