# generated using pymatgen
data_K2P3
_symmetry_space_group_name_H-M   'P 1'
_cell_length_a   8.31741688
_cell_length_b   8.47729130
_cell_length_c   10.23762194
_cell_angle_alpha   78.50522492
_cell_angle_beta   66.03252770
_cell_angle_gamma   60.62192076
_symmetry_Int_Tables_number   1
_chemical_formula_structural   K2P3
_chemical_formula_sum   'K8 P12'
_cell_volume   574.78159120
_cell_formula_units_Z   4
loop_
 _symmetry_equiv_pos_site_id
 _symmetry_equiv_pos_as_xyz
  1  'x, y, z'
loop_
 _atom_site_type_symbol
 _atom_site_label
 _atom_site_symmetry_multiplicity
 _atom_site_fract_x
 _atom_site_fract_y
 _atom_site_fract_z
 _atom_site_occupancy
  K  K0  1  0.24963339  0.25000000  0.50073422  1
  K  K1  1  0.50036661  0.25000000  0.99926578  1
  K  K2  1  0.98831449  0.75000000  0.02337003  1
  K  K3  1  0.26168551  0.75000000  0.47662997  1
  K  K4  1  0.73831449  0.25000000  0.52337003  1
  K  K5  1  0.49963339  0.75000000  0.00073422  1
  K  K6  1  0.75036661  0.75000000  0.49926578  1
  K  K7  1  0.01168551  0.25000000  0.97662997  1
  P  P8  1  0.42011893  0.60446153  0.75405019  1
  P  P9  1  0.02009873  0.95980454  0.25000000  1
  P  P10  1  0.27009873  0.45980454  0.75000000  1
  P  P11  1  0.17416913  0.10446153  0.24594981  1
  P  P12  1  0.97990127  0.04019546  0.75000000  1
  P  P13  1  0.27862866  0.89553847  0.74594981  1
  P  P14  1  0.72137134  0.10446153  0.25405019  1
  P  P15  1  0.72990127  0.54019546  0.25000000  1
  P  P16  1  0.97542253  0.60446153  0.74594981  1
  P  P17  1  0.57988107  0.39553847  0.24594981  1
  P  P18  1  0.82583087  0.89553847  0.75405019  1
  P  P19  1  0.02457747  0.39553847  0.25405019  1
