# generated using pymatgen
data_Ge4Se9
_symmetry_space_group_name_H-M   'P 1'
_cell_length_a   7.09679153
_cell_length_b   12.77971063
_cell_length_c   18.01689918
_cell_angle_alpha   90.00000000
_cell_angle_beta   90.00000000
_cell_angle_gamma   90.00000000
_symmetry_Int_Tables_number   1
_chemical_formula_structural   Ge4Se9
_chemical_formula_sum   'Ge16 Se36'
_cell_volume   1634.04162894
_cell_formula_units_Z   4
loop_
 _symmetry_equiv_pos_site_id
 _symmetry_equiv_pos_as_xyz
  1  'x, y, z'
loop_
 _atom_site_type_symbol
 _atom_site_label
 _atom_site_symmetry_multiplicity
 _atom_site_fract_x
 _atom_site_fract_y
 _atom_site_fract_z
 _atom_site_occupancy
  Ge  Ge0  1  0.68193769  0.20863201  0.82928952  1
  Ge  Ge1  1  0.18337540  0.20213891  0.77547091  1
  Ge  Ge2  1  0.31806231  0.20863201  0.32928952  1
  Ge  Ge3  1  0.32014157  0.63552807  0.54100556  1
  Ge  Ge4  1  0.18172172  0.13563481  0.14581805  1
  Ge  Ge5  1  0.81662460  0.70213891  0.22452909  1
  Ge  Ge6  1  0.18337540  0.70213891  0.72452909  1
  Ge  Ge7  1  0.67985843  0.13552807  0.45899444  1
  Ge  Ge8  1  0.31806231  0.70863201  0.17071048  1
  Ge  Ge9  1  0.32014157  0.13552807  0.95899444  1
  Ge  Ge10  1  0.18172172  0.63563481  0.35418195  1
  Ge  Ge11  1  0.81827828  0.63563481  0.85418195  1
  Ge  Ge12  1  0.81662460  0.20213891  0.27547091  1
  Ge  Ge13  1  0.81827828  0.13563481  0.64581805  1
  Ge  Ge14  1  0.68193769  0.70863201  0.67071048  1
  Ge  Ge15  1  0.67985843  0.63552807  0.04100556  1
  Se  Se16  1  0.74490810  0.01034800  0.55281479  1
  Se  Se17  1  0.70098637  0.05715876  0.75537267  1
  Se  Se18  1  0.34633815  0.65599749  0.04581397  1
  Se  Se19  1  0.19796810  0.55227051  0.64807739  1
  Se  Se20  1  0.94991911  0.31929440  0.82131238  1
  Se  Se21  1  0.32544123  0.29619436  0.10956301  1
  Se  Se22  1  0.25509190  0.01034800  0.05281479  1
  Se  Se23  1  0.15312372  0.65079479  0.84967573  1
  Se  Se24  1  0.80203190  0.05227051  0.35192261  1
  Se  Se25  1  0.44129241  0.32019388  0.78343064  1
  Se  Se26  1  0.55870759  0.82019388  0.21656936  1
  Se  Se27  1  0.32544123  0.79619436  0.39043699  1
  Se  Se28  1  0.16838083  0.29441502  0.99395376  1
  Se  Se29  1  0.80203190  0.55227051  0.14807739  1
  Se  Se30  1  0.67455877  0.79619436  0.89043699  1
  Se  Se31  1  0.74490810  0.51034800  0.94718521  1
  Se  Se32  1  0.25509190  0.51034800  0.44718521  1
  Se  Se33  1  0.84687628  0.65079479  0.34967573  1
  Se  Se34  1  0.55870759  0.32019388  0.28343064  1
  Se  Se35  1  0.29901363  0.55715876  0.24462733  1
  Se  Se36  1  0.19796810  0.05227051  0.85192261  1
  Se  Se37  1  0.15312372  0.15079479  0.65032427  1
  Se  Se38  1  0.44129241  0.82019388  0.71656936  1
  Se  Se39  1  0.65366185  0.65599749  0.54581397  1
  Se  Se40  1  0.29901363  0.05715876  0.25537267  1
  Se  Se41  1  0.83161917  0.79441502  0.00604624  1
  Se  Se42  1  0.84687628  0.15079479  0.15032427  1
  Se  Se43  1  0.70098637  0.55715876  0.74462733  1
  Se  Se44  1  0.94991911  0.81929440  0.67868762  1
  Se  Se45  1  0.65366185  0.15599749  0.95418603  1
  Se  Se46  1  0.67455877  0.29619436  0.60956301  1
  Se  Se47  1  0.34633815  0.15599749  0.45418603  1
  Se  Se48  1  0.16838083  0.79441502  0.50604624  1
  Se  Se49  1  0.83161917  0.29441502  0.49395376  1
  Se  Se50  1  0.05008089  0.81929440  0.17868762  1
  Se  Se51  1  0.05008089  0.31929440  0.32131238  1
