# generated using pymatgen
data_PBr7
_symmetry_space_group_name_H-M   'P 1'
_cell_length_a   8.11338920
_cell_length_b   9.38915746
_cell_length_c   14.65894664
_cell_angle_alpha   90.00000000
_cell_angle_beta   90.00000000
_cell_angle_gamma   90.00000000
_symmetry_Int_Tables_number   1
_chemical_formula_structural   PBr7
_chemical_formula_sum   'P4 Br28'
_cell_volume   1116.68760609
_cell_formula_units_Z   4
loop_
 _symmetry_equiv_pos_site_id
 _symmetry_equiv_pos_as_xyz
  1  'x, y, z'
loop_
 _atom_site_type_symbol
 _atom_site_label
 _atom_site_symmetry_multiplicity
 _atom_site_fract_x
 _atom_site_fract_y
 _atom_site_fract_z
 _atom_site_occupancy
  P  P0  1  0.75000000  0.38456015  0.64659845  1
  P  P1  1  0.75000000  0.88456015  0.85340155  1
  P  P2  1  0.25000000  0.11543985  0.14659845  1
  P  P3  1  0.25000000  0.61543985  0.35340155  1
  Br  Br4  1  0.25000000  0.83760146  0.62431322  1
  Br  Br5  1  0.75000000  0.38757169  0.29692639  1
  Br  Br6  1  0.75000000  0.42213329  0.79228993  1
  Br  Br7  1  0.96614172  0.26478843  0.60706272  1
  Br  Br8  1  0.25000000  0.11242831  0.79692639  1
  Br  Br9  1  0.03385828  0.23521157  0.10706272  1
  Br  Br10  1  0.25000000  0.07786671  0.29228993  1
  Br  Br11  1  0.25000000  0.59027589  0.98108844  1
  Br  Br12  1  0.75000000  0.08705960  0.92371162  1
  Br  Br13  1  0.03385828  0.73521157  0.39293728  1
  Br  Br14  1  0.25000000  0.41294040  0.42371162  1
  Br  Br15  1  0.75000000  0.92213329  0.70771007  1
  Br  Br16  1  0.96614172  0.76478843  0.89293728  1
  Br  Br17  1  0.75000000  0.66239854  0.12431322  1
  Br  Br18  1  0.25000000  0.33760146  0.87568678  1
  Br  Br19  1  0.53385828  0.76478843  0.89293728  1
  Br  Br20  1  0.75000000  0.40972411  0.01891156  1
  Br  Br21  1  0.53385828  0.26478843  0.60706272  1
  Br  Br22  1  0.25000000  0.61242831  0.70307361  1
  Br  Br23  1  0.75000000  0.58705960  0.57628838  1
  Br  Br24  1  0.75000000  0.16239854  0.37568678  1
  Br  Br25  1  0.75000000  0.88757169  0.20307361  1
  Br  Br26  1  0.25000000  0.09027589  0.51891156  1
  Br  Br27  1  0.46614172  0.23521157  0.10706272  1
  Br  Br28  1  0.75000000  0.90972411  0.48108844  1
  Br  Br29  1  0.25000000  0.91294040  0.07628838  1
  Br  Br30  1  0.25000000  0.57786671  0.20771007  1
  Br  Br31  1  0.46614172  0.73521157  0.39293728  1
