# generated using pymatgen
data_Mn4Si7
_symmetry_space_group_name_H-M   'P 1'
_cell_length_a   5.45652670
_cell_length_b   5.45652445
_cell_length_c   17.15003717
_cell_angle_alpha   90.00000000
_cell_angle_beta   90.00000000
_cell_angle_gamma   90.00099229
_symmetry_Int_Tables_number   1
_chemical_formula_structural   Mn4Si7
_chemical_formula_sum   'Mn16 Si28'
_cell_volume   510.61957031
_cell_formula_units_Z   4
loop_
 _symmetry_equiv_pos_site_id
 _symmetry_equiv_pos_as_xyz
  1  'x, y, z'
loop_
 _atom_site_type_symbol
 _atom_site_label
 _atom_site_symmetry_multiplicity
 _atom_site_fract_x
 _atom_site_fract_y
 _atom_site_fract_z
 _atom_site_occupancy
  Mn  Mn0  1  0.00000000  -0.00000000  0.24999910  1
  Mn  Mn1  1  0.00000000  0.50000000  0.80846666  1
  Mn  Mn2  1  0.50000000  -0.00000000  0.69153253  1
  Mn  Mn3  1  0.50000000  0.50000000  0.36979441  1
  Mn  Mn4  1  0.00000000  -0.00000000  0.00002020  1
  Mn  Mn5  1  0.50000000  0.50000000  0.13020729  1
  Mn  Mn6  1  0.50000000  -0.00000000  0.43497877  1
  Mn  Mn7  1  0.00000000  -0.00000000  0.74999983  1
  Mn  Mn8  1  0.50000000  -0.00000000  0.93501516  1
  Mn  Mn9  1  0.50000000  0.50000000  0.63017428  1
  Mn  Mn10  1  0.00000000  0.50000000  0.06502197  1
  Mn  Mn11  1  0.00000000  0.50000000  0.30846111  1
  Mn  Mn12  1  0.00000000  -0.00000000  0.49997853  1
  Mn  Mn13  1  0.50000000  -0.00000000  0.19153996  1
  Mn  Mn14  1  0.00000000  0.50000000  0.56498190  1
  Mn  Mn15  1  0.50000000  0.50000000  0.86982057  1
  Si  Si16  1  0.80271438  0.84438007  0.11343624  1
  Si  Si17  1  0.77144074  0.34608267  0.46048864  1
  Si  Si18  1  0.80266894  0.15560585  0.61343445  1
  Si  Si19  1  0.34607787  0.22860969  0.53948832  1
  Si  Si20  1  0.67766123  0.15901951  0.31714986  1
  Si  Si21  1  0.22861092  0.34608074  0.96051301  1
  Si  Si22  1  0.67765384  0.84097041  0.81716617  1
  Si  Si23  1  0.15903253  0.67764158  0.18283891  1
  Si  Si24  1  0.65391607  0.22854306  0.03951378  1
  Si  Si25  1  0.15560504  0.80267767  0.88657224  1
  Si  Si26  1  0.66579732  0.33421679  0.75000662  1
  Si  Si27  1  0.77138908  0.65391926  0.96051301  1
  Si  Si28  1  0.15902040  0.32233255  0.68284569  1
  Si  Si29  1  0.33422065  0.33420203  0.24999271  1
  Si  Si30  1  0.32233877  0.84098049  0.31714986  1
  Si  Si31  1  0.65392213  0.77139031  0.53948832  1
  Si  Si32  1  0.84096747  0.32235842  0.18283891  1
  Si  Si33  1  0.84438355  0.80269288  0.38655821  1
  Si  Si34  1  0.84439496  0.19732233  0.88657224  1
  Si  Si35  1  0.19728562  0.15561993  0.11343624  1
  Si  Si36  1  0.84097960  0.67766745  0.68284569  1
  Si  Si37  1  0.22855926  0.65391733  0.46048864  1
  Si  Si38  1  0.19733106  0.84439415  0.61343445  1
  Si  Si39  1  0.15561645  0.19730712  0.38655821  1
  Si  Si40  1  0.32234616  0.15902959  0.81716617  1
  Si  Si41  1  0.66577935  0.66579797  0.24999271  1
  Si  Si42  1  0.33420268  0.66578321  0.75000662  1
  Si  Si43  1  0.34608393  0.77145694  0.03951378  1
