# generated using pymatgen
data_BaS2
_symmetry_space_group_name_H-M   'P 1'
_cell_length_a   4.80735934
_cell_length_b   5.26623586
_cell_length_c   8.40318733
_cell_angle_alpha   79.94135210
_cell_angle_beta   73.37875018
_cell_angle_gamma   62.84288528
_symmetry_Int_Tables_number   1
_chemical_formula_structural   BaS2
_chemical_formula_sum   'Ba2 S4'
_cell_volume   181.13608063
_cell_formula_units_Z   2
loop_
 _symmetry_equiv_pos_site_id
 _symmetry_equiv_pos_as_xyz
  1  'x, y, z'
loop_
 _atom_site_type_symbol
 _atom_site_label
 _atom_site_symmetry_multiplicity
 _atom_site_fract_x
 _atom_site_fract_y
 _atom_site_fract_z
 _atom_site_occupancy
  Ba  Ba0  1  0.14243005  0.25000000  0.75000000  1
  Ba  Ba1  1  0.85756995  0.75000000  0.25000000  1
  S  S2  1  0.48469080  0.30295389  0.02036109  1
  S  S3  1  0.80800478  0.19704611  0.47963891  1
  S  S4  1  0.19199522  0.80295389  0.52036109  1
  S  S5  1  0.51530920  0.69704611  0.97963891  1
