# generated using pymatgen
data_Cs5SiAs3
_symmetry_space_group_name_H-M   'P 1'
_cell_length_a   6.07866724
_cell_length_b   14.59552048
_cell_length_c   16.04401295
_cell_angle_alpha   90.00000000
_cell_angle_beta   90.00000000
_cell_angle_gamma   90.00000000
_symmetry_Int_Tables_number   1
_chemical_formula_structural   Cs5SiAs3
_chemical_formula_sum   'Cs20 Si4 As12'
_cell_volume   1423.44588176
_cell_formula_units_Z   4
loop_
 _symmetry_equiv_pos_site_id
 _symmetry_equiv_pos_as_xyz
  1  'x, y, z'
loop_
 _atom_site_type_symbol
 _atom_site_label
 _atom_site_symmetry_multiplicity
 _atom_site_fract_x
 _atom_site_fract_y
 _atom_site_fract_z
 _atom_site_occupancy
  Cs  Cs0  1  0.75000000  0.64520697  0.95248085  1
  Cs  Cs1  1  0.25000000  0.77754593  0.70526448  1
  Cs  Cs2  1  0.75000000  0.93562789  0.04773550  1
  Cs  Cs3  1  0.75000000  0.94978883  0.34656178  1
  Cs  Cs4  1  0.25000000  0.35479303  0.04751915  1
  Cs  Cs5  1  0.25000000  0.85479303  0.45248085  1
  Cs  Cs6  1  0.75000000  0.14520697  0.54751915  1
  Cs  Cs7  1  0.75000000  0.43562789  0.45226450  1
  Cs  Cs8  1  0.25000000  0.05021117  0.65343822  1
  Cs  Cs9  1  0.25000000  0.27754593  0.79473552  1
  Cs  Cs10  1  0.75000000  0.37992791  0.68637492  1
  Cs  Cs11  1  0.25000000  0.56437211  0.54773550  1
  Cs  Cs12  1  0.75000000  0.22245407  0.29473552  1
  Cs  Cs13  1  0.75000000  0.72245407  0.20526448  1
  Cs  Cs14  1  0.75000000  0.44978883  0.15343822  1
  Cs  Cs15  1  0.25000000  0.06437211  0.95226450  1
  Cs  Cs16  1  0.25000000  0.62007209  0.31362508  1
  Cs  Cs17  1  0.75000000  0.87992791  0.81362508  1
  Cs  Cs18  1  0.25000000  0.55021117  0.84656178  1
  Cs  Cs19  1  0.25000000  0.12007209  0.18637492  1
  Si  Si20  1  0.75000000  0.73978873  0.56613286  1
  Si  Si21  1  0.75000000  0.23978873  0.93386714  1
  Si  Si22  1  0.25000000  0.26021127  0.43386714  1
  Si  Si23  1  0.25000000  0.76021127  0.06613286  1
  As  As24  1  0.75000000  0.39529986  0.91199057  1
  As  As25  1  0.25000000  0.86402599  0.17462116  1
  As  As26  1  0.75000000  0.63597401  0.67462116  1
  As  As27  1  0.75000000  0.69296915  0.42967003  1
  As  As28  1  0.75000000  0.89529986  0.58800943  1
  As  As29  1  0.25000000  0.60470014  0.08800943  1
  As  As30  1  0.25000000  0.80703085  0.92967003  1
  As  As31  1  0.25000000  0.30703085  0.57032997  1
  As  As32  1  0.75000000  0.13597401  0.82537884  1
  As  As33  1  0.25000000  0.10470014  0.41199057  1
  As  As34  1  0.25000000  0.36402599  0.32537884  1
  As  As35  1  0.75000000  0.19296915  0.07032997  1
