# generated using pymatgen
data_Rb2SiAs2
_symmetry_space_group_name_H-M   'P 1'
_cell_length_a   6.41392787
_cell_length_b   7.30535684
_cell_length_c   8.47613064
_cell_angle_alpha   115.52704540
_cell_angle_beta   112.23166602
_cell_angle_gamma   90.00000193
_symmetry_Int_Tables_number   1
_chemical_formula_structural   Rb2SiAs2
_chemical_formula_sum   'Rb4 Si2 As4'
_cell_volume   325.36479836
_cell_formula_units_Z   2
loop_
 _symmetry_equiv_pos_site_id
 _symmetry_equiv_pos_as_xyz
  1  'x, y, z'
loop_
 _atom_site_type_symbol
 _atom_site_label
 _atom_site_symmetry_multiplicity
 _atom_site_fract_x
 _atom_site_fract_y
 _atom_site_fract_z
 _atom_site_occupancy
  Rb  Rb0  1  0.64492501  0.98027003  0.28985003  1
  Rb  Rb1  1  0.35507499  0.01972997  0.71014997  1
  Rb  Rb2  1  0.85507499  0.69042000  0.71014997  1
  Rb  Rb3  1  0.14492501  0.30958000  0.28985003  1
  Si  Si4  1  0.75000000  0.50000000  -0.00000000  1
  Si  Si5  1  0.25000000  0.50000000  -0.00000000  1
  As  As6  1  0.40463016  0.56527532  0.80926032  1
  As  As7  1  0.59536984  0.43472468  0.19073968  1
  As  As8  1  0.90463016  0.24398501  0.80926032  1
  As  As9  1  0.09536984  0.75601499  0.19073968  1
