# generated using pymatgen
data_PtS2
_symmetry_space_group_name_H-M   'P 1'
_cell_length_a   3.54874234
_cell_length_b   3.54874204
_cell_length_c   5.59706654
_cell_angle_alpha   90.00000000
_cell_angle_beta   90.00000000
_cell_angle_gamma   120.00000281
_symmetry_Int_Tables_number   1
_chemical_formula_structural   PtS2
_chemical_formula_sum   'Pt1 S2'
_cell_volume   61.04357903
_cell_formula_units_Z   1
loop_
 _symmetry_equiv_pos_site_id
 _symmetry_equiv_pos_as_xyz
  1  'x, y, z'
loop_
 _atom_site_type_symbol
 _atom_site_label
 _atom_site_symmetry_multiplicity
 _atom_site_fract_x
 _atom_site_fract_y
 _atom_site_fract_z
 _atom_site_occupancy
  Pt  Pt0  1  0.00000000  0.00000000  -0.00000000  1
  S  S1  1  0.66666700  0.33333300  0.77966406  1
  S  S2  1  0.33333300  0.66666700  0.22033594  1
