# generated using pymatgen
data_Pu2SiO10
_symmetry_space_group_name_H-M   'P 1'
_cell_length_a   10.27264438
_cell_length_b   10.27262916
_cell_length_c   10.27283413
_cell_angle_alpha   140.14500794
_cell_angle_beta   140.14524339
_cell_angle_gamma   57.63354849
_symmetry_Int_Tables_number   1
_chemical_formula_structural   Pu2SiO10
_chemical_formula_sum   'Pu4 Si2 O20'
_cell_volume   441.34215729
_cell_formula_units_Z   2
loop_
 _symmetry_equiv_pos_site_id
 _symmetry_equiv_pos_as_xyz
  1  'x, y, z'
loop_
 _atom_site_type_symbol
 _atom_site_label
 _atom_site_symmetry_multiplicity
 _atom_site_fract_x
 _atom_site_fract_y
 _atom_site_fract_z
 _atom_site_occupancy
  Pu  Pu0  1  0.32509885  0.32484138  -0.00025695  1
  Pu  Pu1  1  0.07539908  0.57487284  0.50011814  1
  Pu  Pu2  1  0.42499879  0.92467183  0.49983749  1
  Pu  Pu3  1  0.67523677  0.67481826  0.00023850  1
  Si  Si4  1  0.49997245  0.50006512  0.00003781  1
  Si  Si5  1  0.24997070  0.75004401  0.50001587  1
  O  O6  1  0.58200220  0.33109191  0.25094162  1
  O  O7  1  0.08018005  0.33112772  0.74907310  1
  O  O8  1  0.08115501  0.83181634  0.75080394  1
  O  O9  1  0.08113787  0.32994238  0.24896144  1
  O  O10  1  0.16803468  0.91892159  0.24915665  1
  O  O11  1  0.66994090  0.91897018  0.75103253  1
  O  O12  1  0.66901111  0.41791007  0.74906855  1
  O  O13  1  0.66898296  0.91972945  0.25091533  1
  O  O14  1  0.44044025  0.61381515  0.17367689  1
  O  O15  1  0.36302007  0.68976051  0.67276058  1
  O  O16  1  0.01681556  0.69001617  0.32630130  1
  O  O17  1  0.44014561  0.26705471  0.82721433  1
  O  O18  1  0.31018606  0.63707789  0.32723043  1
  O  O19  1  0.38627398  0.55951261  0.82633504  1
  O  O20  1  0.73300408  0.55976276  0.17280280  1
  O  O21  1  0.30988340  0.98323013  0.67367594  1
  O  O22  1  0.22122176  0.22185835  0.00037558  1
  O  O23  1  0.97094747  0.47122645  0.49953080  1
  O  O24  1  0.52865328  0.02917987  0.50049349  1
  O  O25  1  0.77828605  0.77868331  -0.00034119  1
