# generated using pymatgen
data_Rb2O2
_symmetry_space_group_name_H-M   'P 1'
_cell_length_a   4.18679973
_cell_length_b   5.08255873
_cell_length_c   5.08255798
_cell_angle_alpha   72.02607387
_cell_angle_beta   65.67705785
_cell_angle_gamma   65.67706131
_symmetry_Int_Tables_number   1
_chemical_formula_structural   Rb2O2
_chemical_formula_sum   'Rb2 O2'
_cell_volume   88.54103940
_cell_formula_units_Z   1
loop_
 _symmetry_equiv_pos_site_id
 _symmetry_equiv_pos_as_xyz
  1  'x, y, z'
loop_
 _atom_site_type_symbol
 _atom_site_label
 _atom_site_symmetry_multiplicity
 _atom_site_fract_x
 _atom_site_fract_y
 _atom_site_fract_z
 _atom_site_occupancy
  Rb  Rb0  1  0.74373607  0.25626393  0.25626393  1
  Rb  Rb1  1  0.25626393  0.74373607  0.74373607  1
  O  O2  1  -0.00000000  0.62688266  0.37311734  1
  O  O3  1  0.00000000  0.37311734  0.62688266  1
