# generated using pymatgen
data_Hf3N4
_symmetry_space_group_name_H-M   'P 1'
_cell_length_a   9.75732786
_cell_length_b   10.65892137
_cell_length_c   3.22583835
_cell_angle_alpha   90.00000000
_cell_angle_beta   90.00000000
_cell_angle_gamma   90.00000000
_symmetry_Int_Tables_number   1
_chemical_formula_structural   Hf3N4
_chemical_formula_sum   'Hf12 N16'
_cell_volume   335.49554474
_cell_formula_units_Z   4
loop_
 _symmetry_equiv_pos_site_id
 _symmetry_equiv_pos_as_xyz
  1  'x, y, z'
loop_
 _atom_site_type_symbol
 _atom_site_label
 _atom_site_symmetry_multiplicity
 _atom_site_fract_x
 _atom_site_fract_y
 _atom_site_fract_z
 _atom_site_occupancy
  Hf  Hf0  1  0.06941974  0.12467310  0.75299057  1
  Hf  Hf1  1  0.10602315  0.59322620  0.75303017  1
  Hf  Hf2  1  0.22710293  0.85344600  0.75299914  1
  Hf  Hf3  1  0.27289707  0.35344600  0.25299914  1
  Hf  Hf4  1  0.39397685  0.09322620  0.25303017  1
  Hf  Hf5  1  0.43058026  0.62467310  0.25299057  1
  Hf  Hf6  1  0.56941974  0.37532690  0.75299057  1
  Hf  Hf7  1  0.60602315  0.90677380  0.75303017  1
  Hf  Hf8  1  0.72710293  0.64655400  0.75299914  1
  Hf  Hf9  1  0.77289707  0.14655400  0.25299914  1
  Hf  Hf10  1  0.89397685  0.40677380  0.25303017  1
  Hf  Hf11  1  0.93058026  0.87532690  0.25299057  1
  N  N12  1  0.00854063  0.77539126  0.75298815  1
  N  N13  1  0.10346002  0.47032329  0.25302597  1
  N  N14  1  0.14119650  0.98206525  0.25298675  1
  N  N15  1  0.23856265  0.71479866  0.25298126  1
  N  N16  1  0.26143735  0.21479866  0.75298126  1
  N  N17  1  0.35880350  0.48206525  0.75298675  1
  N  N18  1  0.39653998  0.97032329  0.75302597  1
  N  N19  1  0.49145937  0.27539126  0.25298815  1
  N  N20  1  0.50854063  0.72460874  0.75298815  1
  N  N21  1  0.60346002  0.02967671  0.25302597  1
  N  N22  1  0.64119650  0.51793475  0.25298675  1
  N  N23  1  0.73856265  0.78520134  0.25298126  1
  N  N24  1  0.76143735  0.28520134  0.75298126  1
  N  N25  1  0.85880350  0.01793475  0.75298675  1
  N  N26  1  0.89653998  0.52967671  0.75302597  1
  N  N27  1  0.99145937  0.22460874  0.25298815  1
