# generated using pymatgen
data_Ho2S3
_symmetry_space_group_name_H-M   'P 1'
_cell_length_a   3.99704149
_cell_length_b   10.12467985
_cell_length_c   17.54691088
_cell_angle_alpha   98.63545252
_cell_angle_beta   90.00000000
_cell_angle_gamma   90.00000000
_symmetry_Int_Tables_number   1
_chemical_formula_structural   Ho2S3
_chemical_formula_sum   'Ho12 S18'
_cell_volume   702.05186840
_cell_formula_units_Z   6
loop_
 _symmetry_equiv_pos_site_id
 _symmetry_equiv_pos_as_xyz
  1  'x, y, z'
loop_
 _atom_site_type_symbol
 _atom_site_label
 _atom_site_symmetry_multiplicity
 _atom_site_fract_x
 _atom_site_fract_y
 _atom_site_fract_z
 _atom_site_occupancy
  Ho  Ho0  1  0.75000000  0.45123275  0.88538833  1
  Ho  Ho1  1  0.25000000  0.54876725  0.11461167  1
  Ho  Ho2  1  0.75000000  0.51323964  0.60080292  1
  Ho  Ho3  1  0.25000000  0.48676036  0.39919708  1
  Ho  Ho4  1  0.75000000  0.81205555  0.27945616  1
  Ho  Ho5  1  0.25000000  0.18794445  0.72054384  1
  Ho  Ho6  1  0.75000000  0.17021552  0.21848803  1
  Ho  Ho7  1  0.25000000  0.82978448  0.78151197  1
  Ho  Ho8  1  0.75000000  0.87592032  0.56983803  1
  Ho  Ho9  1  0.25000000  0.12407968  0.43016197  1
  Ho  Ho10  1  0.75000000  0.81141782  0.97969996  1
  Ho  Ho11  1  0.25000000  0.18858218  0.02030004  1
  S  S12  1  0.75000000  0.63250112  0.46868411  1
  S  S13  1  0.25000000  0.36749888  0.53131589  1
  S  S14  1  0.75000000  0.68130184  0.81838430  1
  S  S15  1  0.25000000  0.31869816  0.18161570  1
  S  S16  1  0.75000000  0.04877453  0.07587509  1
  S  S17  1  0.25000000  0.95122547  0.92412491  1
  S  S18  1  0.75000000  0.28972642  0.36862496  1
  S  S19  1  0.25000000  0.71027358  0.63137504  1
  S  S20  1  0.75000000  0.99306524  0.73204093  1
  S  S21  1  0.25000000  0.00693476  0.26795907  1
  S  S22  1  0.75000000  0.36222138  0.71746306  1
  S  S23  1  0.25000000  0.63777862  0.28253694  1
  S  S24  1  0.25000000  0.05195661  0.57527158  1
  S  S25  1  0.75000000  0.94804339  0.42472842  1
  S  S26  1  0.25000000  0.26920252  0.87283796  1
  S  S27  1  0.75000000  0.73079748  0.12716204  1
  S  S28  1  0.25000000  0.61567390  0.96740781  1
  S  S29  1  0.75000000  0.38432610  0.03259219  1
