# generated using pymatgen
data_PrI3
_symmetry_space_group_name_H-M   'P 1'
_cell_length_a   11.14355378
_cell_length_b   11.14355140
_cell_length_c   4.17201855
_cell_angle_alpha   90.00000000
_cell_angle_beta   90.00000000
_cell_angle_gamma   119.99999176
_symmetry_Int_Tables_number   1
_chemical_formula_structural   PrI3
_chemical_formula_sum   'Pr2 I6'
_cell_volume   448.66710826
_cell_formula_units_Z   2
loop_
 _symmetry_equiv_pos_site_id
 _symmetry_equiv_pos_as_xyz
  1  'x, y, z'
loop_
 _atom_site_type_symbol
 _atom_site_label
 _atom_site_symmetry_multiplicity
 _atom_site_fract_x
 _atom_site_fract_y
 _atom_site_fract_z
 _atom_site_occupancy
  Pr  Pr0  1  0.33333300  0.66666700  0.74999900  1
  Pr  Pr1  1  0.66666700  0.33333300  0.24999800  1
  I  I2  1  0.20973931  0.41947761  0.24999800  1
  I  I3  1  0.58052239  0.79025969  0.24999800  1
  I  I4  1  0.20973831  0.79025969  0.24999800  1
  I  I5  1  0.79026069  0.58052239  0.74999900  1
  I  I6  1  0.41947761  0.20973931  0.74999900  1
  I  I7  1  0.79026169  0.20973931  0.74999900  1
