# generated using pymatgen
data_RbS
_symmetry_space_group_name_H-M   'P 1'
_cell_length_a   8.91022901
_cell_length_b   8.91022915
_cell_length_c   6.09029722
_cell_angle_alpha   90.00000000
_cell_angle_beta   90.00000000
_cell_angle_gamma   120.00000337
_symmetry_Int_Tables_number   1
_chemical_formula_structural   RbS
_chemical_formula_sum   'Rb6 S6'
_cell_volume   418.74230970
_cell_formula_units_Z   6
loop_
 _symmetry_equiv_pos_site_id
 _symmetry_equiv_pos_as_xyz
  1  'x, y, z'
loop_
 _atom_site_type_symbol
 _atom_site_label
 _atom_site_symmetry_multiplicity
 _atom_site_fract_x
 _atom_site_fract_y
 _atom_site_fract_z
 _atom_site_occupancy
  Rb  Rb0  1  -0.00000000  0.30401650  0.50000000  1
  Rb  Rb1  1  0.69598350  0.69598350  0.50000000  1
  Rb  Rb2  1  0.30401650  -0.00000000  0.50000000  1
  Rb  Rb3  1  -0.00000000  0.63998306  -0.00000000  1
  Rb  Rb4  1  0.36001694  0.36001694  -0.00000000  1
  Rb  Rb5  1  0.63998306  -0.00000000  -0.00000000  1
  S  S6  1  0.66666700  0.33333300  0.32512246  1
  S  S7  1  0.66666700  0.33333300  0.67487754  1
  S  S8  1  0.33333300  0.66666700  0.67487754  1
  S  S9  1  0.33333300  0.66666700  0.32512246  1
  S  S10  1  0.00000000  0.00000000  0.82644764  1
  S  S11  1  0.00000000  0.00000000  0.17355236  1
